A7_AMP
     RDKit          3D

 61 63  0  0  0  0  0  0  0  0999 V2000
    1.9630   -6.7450   -1.2710 C   0  0  0  0  0  0  0  0  0  0  0  0
    1.1300   -7.3520   -0.7760 C   0  0  0  0  0  0  0  0  0  0  0  0
    0.0070   -8.1810   -0.1620 C   0  0  0  0  0  0  0  0  0  0  0  0
    0.0760   -8.3500    1.3350 C   0  0  0  0  0  0  0  0  0  0  0  0
   -0.8050   -7.3510    2.0550 C   0  0  0  0  0  0  0  0  0  0  0  0
   -1.1100   -7.7820    3.4860 C   0  0  0  0  0  0  0  0  0  0  0  0
   -1.9000   -6.7150    4.2280 C   0  0  0  0  0  0  0  0  0  0  0  0
   -2.0220   -7.0130    5.7200 C   0  0  0  0  0  0  0  0  0  0  0  0
   -2.6980   -5.8700    6.4320 C   0  0  0  0  0  0  0  0  0  0  0  0
   -2.6960   -5.9750    7.9510 C   0  0  0  0  0  0  0  0  0  0  0  0
   -2.1830   -6.8650    8.5600 O   0  0  0  0  0  0  0  0  0  0  0  0
   -3.3450   -4.9110    8.5610 O   0  0  0  0  0  0  0  0  0  0  0  0
   -3.6530   -4.7690   10.0990 P   0  0  0  0  0  0  0  0  0  0  0  0
   -4.1820   -3.3970   10.3420 O   0  0  0  0  0  0  0  0  0  0  0  0
   -4.4880   -5.9140   10.5520 O   0  0  0  0  0  0  0  0  0  0  0  0
   -2.2010   -4.9040   10.7970 O   0  0  0  0  0  0  0  0  0  0  0  0
   -1.2450   -3.8760   10.6990 C   0  0  0  0  0  0  0  0  0  0  0  0
   -0.1950   -4.1240   11.7650 C   0  0  1  0  0  0  0  0  0  0  0  0
    0.5540   -5.2850   11.4380 O   0  0  0  0  0  0  0  0  0  0  0  0
    1.8940   -5.1120   11.8780 C   0  0  1  0  0  0  0  0  0  0  0  0
    2.7320   -5.2390   10.6740 N   0  0  0  0  0  0  0  0  0  0  0  0
    3.3640   -4.2660    9.9840 C   0  0  0  0  0  0  0  0  0  0  0  0
    4.0070   -4.7560    8.9120 N   0  0  0  0  0  0  0  0  0  0  0  0
    3.7670   -6.0970    8.9260 C   0  0  0  0  0  0  0  0  0  0  0  0
    4.1500   -7.1570    8.0690 C   0  0  0  0  0  0  0  0  0  0  0  0
    4.9220   -6.9430    6.9650 N   0  0  0  0  0  0  0  0  0  0  0  0
    3.7260   -8.4140    8.3660 N   0  0  0  0  0  0  0  0  0  0  0  0
    2.9400   -8.6290    9.4630 C   0  0  0  0  0  0  0  0  0  0  0  0
    2.5410   -7.6560   10.3060 N   0  0  0  0  0  0  0  0  0  0  0  0
    2.9540   -6.4000   10.0270 C   0  0  0  0  0  0  0  0  0  0  0  0
    1.9750   -3.7540   12.5210 C   0  0  2  0  0  0  0  0  0  0  0  0
    1.7210   -3.8970   13.9170 O   0  0  0  0  0  0  0  0  0  0  0  0
    0.8240   -3.0160   11.8540 C   0  0  2  0  0  0  0  0  0  0  0  0
    0.3660   -1.9340   12.6410 O   0  0  0  0  0  0  0  0  0  0  0  0
    2.7644   -6.1610   -1.7472 H   0  0  0  0  0  0  0  0  0  0  0  0
   -0.9482   -7.6927   -0.4053 H   0  0  0  0  0  0  0  0  0  0  0  0
    0.1063   -9.1906   -0.5873 H   0  0  0  0  0  0  0  0  0  0  0  0
   -0.2536   -9.3670    1.5940 H   0  0  0  0  0  0  0  0  0  0  0  0
    1.1157   -8.1788    1.6508 H   0  0  0  0  0  0  0  0  0  0  0  0
   -0.2919   -6.3783    2.0792 H   0  0  0  0  0  0  0  0  0  0  0  0
   -1.7584   -7.2857    1.5103 H   0  0  0  0  0  0  0  0  0  0  0  0
   -1.6976   -8.7116    3.4627 H   0  0  0  0  0  0  0  0  0  0  0  0
   -0.1567   -7.9372    4.0125 H   0  0  0  0  0  0  0  0  0  0  0  0
   -1.3921   -5.7475    4.1014 H   0  0  0  0  0  0  0  0  0  0  0  0
   -2.9156   -6.6956    3.8059 H   0  0  0  0  0  0  0  0  0  0  0  0
   -2.6160   -7.9283    5.8591 H   0  0  0  0  0  0  0  0  0  0  0  0
   -1.0142   -7.1479    6.1398 H   0  0  0  0  0  0  0  0  0  0  0  0
   -2.1824   -4.9394    6.1524 H   0  0  0  0  0  0  0  0  0  0  0  0
   -3.7529   -5.8912    6.1210 H   0  0  0  0  0  0  0  0  0  0  0  0
   -0.7790   -3.8907    9.7027 H   0  0  0  0  0  0  0  0  0  0  0  0
   -1.7178   -2.8933   10.8433 H   0  0  0  0  0  0  0  0  0  0  0  0
   -0.7484   -4.2112   12.7117 H   0  0  0  0  0  0  0  0  0  0  0  0
    2.2336   -5.8489   12.6208 H   0  0  0  0  0  0  0  0  0  0  0  0
    3.3535   -3.2026   10.2653 H   0  0  0  0  0  0  0  0  0  0  0  0
    5.1852   -7.7336    6.3595 H   0  0  0  0  0  0  0  0  0  0  0  0
    5.2417   -5.9908    6.7368 H   0  0  0  0  0  0  0  0  0  0  0  0
    2.6131   -9.6586    9.6706 H   0  0  0  0  0  0  0  0  0  0  0  0
    2.9445   -3.2463   12.4101 H   0  0  0  0  0  0  0  0  0  0  0  0
    2.4584   -3.4819   14.4308 H   0  0  0  0  0  0  0  0  0  0  0  0
    1.0742   -2.5479   10.8905 H   0  0  0  0  0  0  0  0  0  0  0  0
    0.4616   -2.1599   13.6001 H   0  0  0  0  0  0  0  0  0  0  0  0
  1  2  3  0
  2  3  1  0
  3  4  1  0
  4  5  1  0
  5  6  1  0
  6  7  1  0
  7  8  1  0
  8  9  1  0
  9 10  1  0
 10 11  2  0
 10 12  1  0
 12 13  1  0
 13 14  2  0
 13 15  1  0
 13 16  1  0
 16 17  1  0
 17 18  1  0
 18 19  1  0
 18 33  1  0
 19 20  1  0
 20 21  1  0
 20 31  1  0
 21 22  1  0
 21 30  1  0
 22 23  2  0
 23 24  1  0
 24 25  2  0
 24 30  1  0
 25 26  1  0
 25 27  1  0
 27 28  2  0
 28 29  1  0
 29 30  2  0
 31 32  1  0
 31 33  1  0
 33 34  1  0
  1 35  1  0
  3 36  1  0
  3 37  1  0
  4 38  1  0
  4 39  1  0
  5 40  1  0
  5 41  1  0
  6 42  1  0
  6 43  1  0
  7 44  1  0
  7 45  1  0
  8 46  1  0
  8 47  1  0
  9 48  1  0
  9 49  1  0
 17 50  1  0
 17 51  1  0
 18 52  1  1
 20 53  1  1
 22 54  1  0
 26 55  1  0
 26 56  1  0
 28 57  1  0
 31 58  1  1
 32 59  1  0
 33 60  1  6
 34 61  1  0
M  CHG  1  15  -1
M  END
