ACCO_AMP
     RDKit          3D

 78 81  0  0  0  0  0  0  0  0999 V2000
    4.9010   -6.8890    7.0050 N   0  0  0  0  0  0  0  0  0  0  0  0
    4.1140   -7.1140    8.0950 C   0  0  0  0  0  0  0  0  0  0  0  0
    3.6890   -8.3620    8.3730 N   0  0  0  0  0  0  0  0  0  0  0  0
    2.8960   -8.5800    9.4470 C   0  0  0  0  0  0  0  0  0  0  0  0
    2.4860   -7.6230   10.2870 N   0  0  0  0  0  0  0  0  0  0  0  0
    2.8960   -6.3670   10.0270 C   0  0  0  0  0  0  0  0  0  0  0  0
    3.7240   -6.0510    8.9440 C   0  0  0  0  0  0  0  0  0  0  0  0
    3.9650   -4.7270    8.9410 N   0  0  0  0  0  0  0  0  0  0  0  0
    3.3210   -4.2440    9.9850 C   0  0  0  0  0  0  0  0  0  0  0  0
    2.6750   -5.2130   10.6570 N   0  0  0  0  0  0  0  0  0  0  0  0
    1.8290   -5.0870   11.8510 C   0  0  2  0  0  0  0  0  0  0  0  0
    0.4800   -5.2850   11.4160 O   0  0  0  0  0  0  0  0  0  0  0  0
   -0.2760   -4.1350   11.7230 C   0  0  2  0  0  0  0  0  0  0  0  0
   -1.3210   -3.9070   10.6620 C   0  0  0  0  0  0  0  0  0  0  0  0
   -2.2860   -4.9070   10.7770 O   0  0  0  0  0  0  0  0  0  0  0  0
   -3.7400   -4.8000   10.0800 P   0  0  0  0  0  0  0  0  0  0  0  0
   -4.5660   -5.9510   10.4750 O   0  0  0  0  0  0  0  0  0  0  0  0
   -4.2790   -3.4310   10.3270 O   0  0  0  0  0  0  0  0  0  0  0  0
   -3.4010   -4.9030    8.5050 O   0  0  0  0  0  0  0  0  0  0  0  0
   -2.7280   -5.9610    7.9050 C   0  0  0  0  0  0  0  0  0  0  0  0
   -2.1870   -6.8150    8.5490 O   0  0  0  0  0  0  0  0  0  0  0  0
   -2.7630   -5.9140    6.3950 C   0  0  0  0  0  0  0  0  0  0  0  0
   -1.9500   -7.0040    5.7340 C   0  0  0  0  0  0  0  0  0  0  0  0
   -1.9880   -6.8850    4.2270 C   0  0  0  0  0  0  0  0  0  0  0  0
   -1.1610   -7.9970    3.5500 C   0  0  0  0  0  0  0  0  0  0  0  0
   -1.1340   -7.8150    2.1270 N   0  0  0  0  0  0  0  0  0  0  0  0
   -0.2180   -7.0710    1.5010 C   0  0  0  0  0  0  0  0  0  0  0  0
    0.7570   -6.6180    2.0490 O   0  0  0  0  0  0  0  0  0  0  0  0
   -0.4920   -6.7910    0.0780 C   0  0  0  0  0  0  0  0  0  0  0  0
    0.3540   -7.4060   -0.9940 C   0  0  2  0  0  0  0  0  0  0  0  0
   -0.4720   -7.4530   -2.0930 O   0  0  0  0  0  0  0  0  0  0  0  0
    0.8930   -8.8050   -0.7360 C   0  0  0  0  0  0  0  0  0  0  0  0
    0.7700   -9.8410   -1.7610 C   0  0  0  0  0  0  0  0  0  0  0  0
    1.2370   -9.6920   -3.1520 C   0  0  0  0  0  0  0  0  0  0  0  0
    1.8480   -8.6420   -3.9210 C   0  0  0  0  0  0  0  0  0  0  0  0
    2.7080   -7.4800   -3.4510 C   0  0  0  0  0  0  0  0  0  0  0  0
    2.0470   -6.3830   -2.6750 C   0  0  0  0  0  0  0  0  0  0  0  0
    1.5530   -6.5260   -1.2900 C   0  0  0  0  0  0  0  0  0  0  0  0
    0.7240   -3.0190   11.8040 C   0  0  1  0  0  0  0  0  0  0  0  0
    0.2490   -1.9230   12.5790 O   0  0  0  0  0  0  0  0  0  0  0  0
    1.8840   -3.7140   12.4740 C   0  0  1  0  0  0  0  0  0  0  0  0
    1.6320   -3.8300   13.8870 O   0  0  0  0  0  0  0  0  0  0  0  0
    5.2259   -5.9350    6.7925 H   0  0  0  0  0  0  0  0  0  0  0  0
    5.1708   -7.6730    6.3939 H   0  0  0  0  0  0  0  0  0  0  0  0
    2.5669   -9.6113    9.6423 H   0  0  0  0  0  0  0  0  0  0  0  0
    3.3131   -3.1817   10.2705 H   0  0  0  0  0  0  0  0  0  0  0  0
    2.1793   -5.8147   12.5979 H   0  0  0  0  0  0  0  0  0  0  0  0
   -0.8306   -4.2216   12.6690 H   0  0  0  0  0  0  0  0  0  0  0  0
   -1.7877   -2.9213   10.8051 H   0  0  0  0  0  0  0  0  0  0  0  0
   -0.8606   -3.9371    9.6634 H   0  0  0  0  0  0  0  0  0  0  0  0
   -3.8087   -6.0143    6.0686 H   0  0  0  0  0  0  0  0  0  0  0  0
   -2.3192   -4.9539    6.0929 H   0  0  0  0  0  0  0  0  0  0  0  0
   -0.9063   -6.9271    6.0727 H   0  0  0  0  0  0  0  0  0  0  0  0
   -2.3815   -7.9760    6.0151 H   0  0  0  0  0  0  0  0  0  0  0  0
   -3.0321   -6.9602    3.8889 H   0  0  0  0  0  0  0  0  0  0  0  0
   -1.5541   -5.9138    3.9469 H   0  0  0  0  0  0  0  0  0  0  0  0
   -0.1318   -7.9680    3.9372 H   0  0  0  0  0  0  0  0  0  0  0  0
   -1.6259   -8.9687    3.7732 H   0  0  0  0  0  0  0  0  0  0  0  0
   -1.8567   -8.2811    1.5601 H   0  0  0  0  0  0  0  0  0  0  0  0
   -1.5263   -7.1130   -0.1131 H   0  0  0  0  0  0  0  0  0  0  0  0
   -0.2641   -5.7186   -0.0116 H   0  0  0  0  0  0  0  0  0  0  0  0
   -1.4146   -7.5066   -1.7953 H   0  0  0  0  0  0  0  0  0  0  0  0
    1.9667   -8.6964   -0.5228 H   0  0  0  0  0  0  0  0  0  0  0  0
    0.2489   -9.1764    0.0746 H   0  0  0  0  0  0  0  0  0  0  0  0
    1.3007  -10.7180   -1.3619 H   0  0  0  0  0  0  0  0  0  0  0  0
   -0.3198   -9.8559   -1.9096 H   0  0  0  0  0  0  0  0  0  0  0  0
    1.0798  -10.6053   -3.7446 H   0  0  0  0  0  0  0  0  0  0  0  0
    1.6672   -8.6858   -5.0051 H   0  0  0  0  0  0  0  0  0  0  0  0
    3.5022   -7.8976   -2.8147 H   0  0  0  0  0  0  0  0  0  0  0  0
    3.0442   -6.9949   -4.3793 H   0  0  0  0  0  0  0  0  0  0  0  0
    2.7748   -5.5587   -2.6472 H   0  0  0  0  0  0  0  0  0  0  0  0
    1.0986   -6.2844   -3.2235 H   0  0  0  0  0  0  0  0  0  0  0  0
    1.2979   -5.5152   -0.9391 H   0  0  0  0  0  0  0  0  0  0  0  0
    2.3778   -7.0479   -0.7827 H   0  0  0  0  0  0  0  0  0  0  0  0
    0.9650   -2.5664   10.8308 H   0  0  0  0  0  0  0  0  0  0  0  0
    0.3409   -2.1351   13.5416 H   0  0  0  0  0  0  0  0  0  0  0  0
    2.8456   -3.1939   12.3520 H   0  0  0  0  0  0  0  0  0  0  0  0
    2.4062   -3.4736   14.3906 H   0  0  0  0  0  0  0  0  0  0  0  0
  1  2  1  0
  2  3  2  0
  2  7  1  0
  3  4  1  0
  4  5  2  0
  5  6  1  0
  6  7  2  0
  6 10  1  0
  7  8  1  0
  8  9  2  0
  9 10  1  0
 10 11  1  0
 11 12  1  0
 11 41  1  0
 12 13  1  0
 13 14  1  0
 13 39  1  0
 14 15  1  0
 15 16  1  0
 16 17  2  0
 16 18  1  0
 16 19  1  0
 19 20  1  0
 20 21  2  0
 20 22  1  0
 22 23  1  0
 23 24  1  0
 24 25  1  0
 25 26  1  0
 26 27  1  0
 27 28  2  0
 27 29  1  0
 29 30  1  0
 30 31  1  6
 30 32  1  0
 30 38  1  0
 32 33  1  0
 33 34  1  0
 34 35  2  3
 35 36  1  0
 36 37  1  0
 37 38  1  0
 39 40  1  0
 39 41  1  0
 41 42  1  0
  1 43  1  0
  1 44  1  0
  4 45  1  0
  9 46  1  0
 11 47  1  1
 13 48  1  1
 14 49  1  0
 14 50  1  0
 22 51  1  0
 22 52  1  0
 23 53  1  0
 23 54  1  0
 24 55  1  0
 24 56  1  0
 25 57  1  0
 25 58  1  0
 26 59  1  0
 29 60  1  0
 29 61  1  0
 31 62  1  0
 32 63  1  0
 32 64  1  0
 33 65  1  0
 33 66  1  0
 34 67  1  0
 35 68  1  0
 36 69  1  0
 36 70  1  0
 37 71  1  0
 37 72  1  0
 38 73  1  0
 38 74  1  0
 39 75  1  6
 40 76  1  0
 41 77  1  1
 42 78  1  0
M  CHG  1  18  -1
M  END
