BCN_AMP
     RDKit          3D

 77 81  0  0  0  0  0  0  0  0999 V2000
    4.9170   -6.9330    7.0510 N   0  0  0  0  0  0  0  0  0  0  0  0
    4.1380   -7.1590    8.1490 C   0  0  0  0  0  0  0  0  0  0  0  0
    3.7200   -8.4080    8.4340 N   0  0  0  0  0  0  0  0  0  0  0  0
    2.9290   -8.6300    9.5160 C   0  0  0  0  0  0  0  0  0  0  0  0
    2.5130   -7.6710   10.3580 N   0  0  0  0  0  0  0  0  0  0  0  0
    2.9210   -6.4120   10.0830 C   0  0  0  0  0  0  0  0  0  0  0  0
    3.7470   -6.1000    8.9900 C   0  0  0  0  0  0  0  0  0  0  0  0
    3.9800   -4.7710    8.9870 N   0  0  0  0  0  0  0  0  0  0  0  0
    3.3330   -4.2870   10.0430 C   0  0  0  0  0  0  0  0  0  0  0  0
    2.6900   -5.2560   10.7240 N   0  0  0  0  0  0  0  0  0  0  0  0
    1.8330   -5.1380   11.9120 C   0  0  2  0  0  0  0  0  0  0  0  0
    0.4900   -5.3310   11.4610 O   0  0  0  0  0  0  0  0  0  0  0  0
   -0.2730   -4.1920   11.7740 C   0  0  2  0  0  0  0  0  0  0  0  0
   -1.3260   -3.9660   10.7050 C   0  0  0  0  0  0  0  0  0  0  0  0
   -2.2840   -4.9720   10.8330 O   0  0  0  0  0  0  0  0  0  0  0  0
   -3.7330   -4.8670   10.1250 P   0  0  0  0  0  0  0  0  0  0  0  0
   -4.2910   -3.5180   10.3620 O   0  0  0  0  0  0  0  0  0  0  0  0
   -4.5610   -6.0360   10.5170 O   0  0  0  0  0  0  0  0  0  0  0  0
   -3.3740   -4.9880    8.5540 O   0  0  0  0  0  0  0  0  0  0  0  0
   -2.6620   -6.0200    7.9790 C   0  0  0  0  0  0  0  0  0  0  0  0
   -2.0790   -6.8490    8.6290 O   0  0  0  0  0  0  0  0  0  0  0  0
   -2.7100   -5.9850    6.4740 C   0  0  0  0  0  0  0  0  0  0  0  0
   -1.9160   -7.0690    5.8130 C   0  0  0  0  0  0  0  0  0  0  0  0
   -1.9670   -6.9500    4.2960 C   0  0  0  0  0  0  0  0  0  0  0  0
   -1.1550   -8.0340    3.6450 C   0  0  0  0  0  0  0  0  0  0  0  0
   -1.1850   -7.9350    2.2070 N   0  0  0  0  0  0  0  0  0  0  0  0
   -0.3900   -7.1390    1.4850 C   0  0  0  0  0  0  0  0  0  0  0  0
    0.4960   -6.4550    1.9560 O   0  0  0  0  0  0  0  0  0  0  0  0
   -0.6950   -7.1700    0.1150 O   0  0  0  0  0  0  0  0  0  0  0  0
    0.1180   -6.5360   -0.8090 C   0  0  0  0  0  0  0  0  0  0  0  0
    1.4590   -7.2380   -0.8480 C   0  0  2  0  0  0  0  0  0  0  0  0
    2.1500   -7.4410   -2.0840 C   0  0  2  0  0  0  0  0  0  0  0  0
    2.1540   -6.6820   -3.2650 C   0  0  0  0  0  0  0  0  0  0  0  0
    2.1940   -7.2210   -4.6910 C   0  0  0  0  0  0  0  0  0  0  0  0
    1.8200   -8.6420   -4.9290 C   0  0  0  0  0  0  0  0  0  0  0  0
    1.4700   -9.7540   -4.4470 C   0  0  0  0  0  0  0  0  0  0  0  0
    1.1000  -10.4750   -3.1640 C   0  0  0  0  0  0  0  0  0  0  0  0
    0.5780   -9.4590   -2.0840 C   0  0  0  0  0  0  0  0  0  0  0  0
    1.5490   -8.5500   -1.5070 C   0  0  2  0  0  0  0  0  0  0  0  0
    0.7290   -3.0740   11.8410 C   0  0  1  0  0  0  0  0  0  0  0  0
    0.2450   -1.9580   12.5990 O   0  0  0  0  0  0  0  0  0  0  0  0
    1.8810   -3.7650   12.5300 C   0  0  1  0  0  0  0  0  0  0  0  0
    1.6100   -3.8910   13.9470 O   0  0  0  0  0  0  0  0  0  0  0  0
    5.2362   -5.9781    6.8337 H   0  0  0  0  0  0  0  0  0  0  0  0
    5.1856   -7.7174    6.4398 H   0  0  0  0  0  0  0  0  0  0  0  0
    2.6085   -9.6633    9.7151 H   0  0  0  0  0  0  0  0  0  0  0  0
    3.3237   -3.2242   10.3265 H   0  0  0  0  0  0  0  0  0  0  0  0
    2.1733   -5.8685   12.6608 H   0  0  0  0  0  0  0  0  0  0  0  0
   -0.8260   -4.2809   12.7207 H   0  0  0  0  0  0  0  0  0  0  0  0
   -1.7960   -2.9813   10.8445 H   0  0  0  0  0  0  0  0  0  0  0  0
   -0.8705   -3.9932    9.7041 H   0  0  0  0  0  0  0  0  0  0  0  0
   -3.7593   -6.0840    6.1592 H   0  0  0  0  0  0  0  0  0  0  0  0
   -2.2626   -5.0291    6.1639 H   0  0  0  0  0  0  0  0  0  0  0  0
   -0.8690   -6.9971    6.1425 H   0  0  0  0  0  0  0  0  0  0  0  0
   -2.3499   -8.0386    6.0986 H   0  0  0  0  0  0  0  0  0  0  0  0
   -3.0121   -7.0338    3.9632 H   0  0  0  0  0  0  0  0  0  0  0  0
   -1.5482   -5.9751    4.0059 H   0  0  0  0  0  0  0  0  0  0  0  0
   -0.1124   -7.9514    3.9859 H   0  0  0  0  0  0  0  0  0  0  0  0
   -1.5885   -9.0040    3.9301 H   0  0  0  0  0  0  0  0  0  0  0  0
   -1.8665   -8.5182    1.7007 H   0  0  0  0  0  0  0  0  0  0  0  0
   -0.3502   -6.5793   -1.8035 H   0  0  0  0  0  0  0  0  0  0  0  0
    0.2573   -5.4834   -0.5216 H   0  0  0  0  0  0  0  0  0  0  0  0
    1.7184   -6.8048    0.1293 H   0  0  0  0  0  0  0  0  0  0  0  0
    3.1350   -7.3149   -2.5571 H   0  0  0  0  0  0  0  0  0  0  0  0
    1.2398   -6.0723   -3.2157 H   0  0  0  0  0  0  0  0  0  0  0  0
    3.1663   -6.2561   -3.2035 H   0  0  0  0  0  0  0  0  0  0  0  0
    1.5106   -6.6016   -5.2905 H   0  0  0  0  0  0  0  0  0  0  0  0
    3.2587   -7.1759   -4.9637 H   0  0  0  0  0  0  0  0  0  0  0  0
    0.3108  -11.2107   -3.3784 H   0  0  0  0  0  0  0  0  0  0  0  0
    1.9958  -10.9782   -2.7712 H   0  0  0  0  0  0  0  0  0  0  0  0
   -0.2072   -8.8494   -2.5550 H   0  0  0  0  0  0  0  0  0  0  0  0
    0.2410  -10.0849   -1.2446 H   0  0  0  0  0  0  0  0  0  0  0  0
    1.8302   -9.5557   -1.1613 H   0  0  0  0  0  0  0  0  0  0  0  0
    0.9797   -2.6347   10.8642 H   0  0  0  0  0  0  0  0  0  0  0  0
    0.3300   -2.1539   13.5657 H   0  0  0  0  0  0  0  0  0  0  0  0
    2.8398   -3.2371   12.4208 H   0  0  0  0  0  0  0  0  0  0  0  0
    2.3764   -3.5347   14.4625 H   0  0  0  0  0  0  0  0  0  0  0  0
  1  2  1  0
  2  3  2  0
  2  7  1  0
  3  4  1  0
  4  5  2  0
  5  6  1  0
  6  7  2  0
  6 10  1  0
  7  8  1  0
  8  9  2  0
  9 10  1  0
 10 11  1  0
 11 12  1  0
 11 42  1  0
 12 13  1  0
 13 14  1  0
 13 40  1  0
 14 15  1  0
 15 16  1  0
 16 17  2  0
 16 18  1  0
 16 19  1  0
 19 20  1  0
 20 21  2  0
 20 22  1  0
 22 23  1  0
 23 24  1  0
 24 25  1  0
 25 26  1  0
 26 27  1  0
 27 28  2  0
 27 29  1  0
 29 30  1  0
 30 31  1  0
 31 32  1  0
 31 39  1  0
 32 33  1  0
 32 39  1  0
 33 34  1  0
 34 35  1  0
 35 36  3  0
 36 37  1  0
 37 38  1  0
 38 39  1  0
 40 41  1  0
 40 42  1  0
 42 43  1  0
  1 44  1  0
  1 45  1  0
  4 46  1  0
  9 47  1  0
 11 48  1  1
 13 49  1  1
 14 50  1  0
 14 51  1  0
 22 52  1  0
 22 53  1  0
 23 54  1  0
 23 55  1  0
 24 56  1  0
 24 57  1  0
 25 58  1  0
 25 59  1  0
 26 60  1  0
 30 61  1  0
 30 62  1  0
 31 63  1  1
 32 64  1  1
 33 65  1  0
 33 66  1  0
 34 67  1  0
 34 68  1  0
 37 69  1  0
 37 70  1  0
 38 71  1  0
 38 72  1  0
 39 73  1  1
 40 74  1  6
 41 75  1  0
 42 76  1  1
 43 77  1  0
M  CHG  1  18  -1
M  END
