C5_AMP
     RDKit          3D

 60 62  0  0  0  0  0  0  0  0999 V2000
    1.4420   -9.0820   -1.5480 C   0  0  0  0  0  0  0  0  0  0  0  0
    1.0720   -8.0270   -1.2590 C   0  0  0  0  0  0  0  0  0  0  0  0
    0.5600   -6.6780   -0.8860 C   0  0  0  0  0  0  0  0  0  0  0  0
   -0.5350   -6.8560   -0.0200 O   0  0  0  0  0  0  0  0  0  0  0  0
   -0.2810   -7.0630    1.3190 C   0  0  0  0  0  0  0  0  0  0  0  0
    0.7220   -6.6240    1.8350 O   0  0  0  0  0  0  0  0  0  0  0  0
   -1.2170   -7.7620    2.0050 N   0  0  0  0  0  0  0  0  0  0  0  0
   -1.1810   -7.9420    3.4240 C   0  0  0  0  0  0  0  0  0  0  0  0
   -1.9490   -6.8290    4.1240 C   0  0  0  0  0  0  0  0  0  0  0  0
   -1.9410   -7.0010    5.6300 C   0  0  0  0  0  0  0  0  0  0  0  0
   -2.6950   -5.8800    6.3110 C   0  0  0  0  0  0  0  0  0  0  0  0
   -2.6870   -5.9630    7.8230 C   0  0  0  0  0  0  0  0  0  0  0  0
   -2.1820   -6.8590    8.4510 O   0  0  0  0  0  0  0  0  0  0  0  0
   -3.3210   -4.8950    8.4340 O   0  0  0  0  0  0  0  0  0  0  0  0
   -3.6610   -4.8130    9.9930 P   0  0  0  0  0  0  0  0  0  0  0  0
   -4.4640   -6.0080   10.3920 O   0  0  0  0  0  0  0  0  0  0  0  0
   -4.2350   -3.4650   10.2620 O   0  0  0  0  0  0  0  0  0  0  0  0
   -2.1970   -4.9120   10.6860 O   0  0  0  0  0  0  0  0  0  0  0  0
   -1.2570   -3.8670   10.5770 C   0  0  0  0  0  0  0  0  0  0  0  0
   -0.2290   -4.0970   11.6570 C   0  0  1  0  0  0  0  0  0  0  0  0
    0.5260   -5.2620   11.3450 O   0  0  0  0  0  0  0  0  0  0  0  0
    1.8460   -5.0930   11.8220 C   0  0  1  0  0  0  0  0  0  0  0  0
    2.7000   -5.2330   10.6250 N   0  0  0  0  0  0  0  0  0  0  0  0
    3.3490   -4.2730    9.9450 C   0  0  0  0  0  0  0  0  0  0  0  0
    3.9880   -4.7650    8.8850 N   0  0  0  0  0  0  0  0  0  0  0  0
    3.7430   -6.1020    8.8890 C   0  0  0  0  0  0  0  0  0  0  0  0
    4.1320   -7.1630    8.0350 C   0  0  0  0  0  0  0  0  0  0  0  0
    4.9130   -6.9460    6.9430 N   0  0  0  0  0  0  0  0  0  0  0  0
    3.6990   -8.4130    8.3210 N   0  0  0  0  0  0  0  0  0  0  0  0
    2.9050   -8.6290    9.4040 C   0  0  0  0  0  0  0  0  0  0  0  0
    2.4930   -7.6590   10.2530 N   0  0  0  0  0  0  0  0  0  0  0  0
    2.9150   -6.4030    9.9870 C   0  0  0  0  0  0  0  0  0  0  0  0
    1.9240   -3.7290   12.4510 C   0  0  2  0  0  0  0  0  0  0  0  0
    1.6370   -3.8540   13.8460 O   0  0  0  0  0  0  0  0  0  0  0  0
    0.7900   -2.9960   11.7500 C   0  0  2  0  0  0  0  0  0  0  0  0
    0.3190   -1.9000   12.5050 O   0  0  0  0  0  0  0  0  0  0  0  0
    1.7945  -10.0870   -1.8233 H   0  0  0  0  0  0  0  0  0  0  0  0
    1.3498   -6.1058   -0.3773 H   0  0  0  0  0  0  0  0  0  0  0  0
    0.2522   -6.1227   -1.7843 H   0  0  0  0  0  0  0  0  0  0  0  0
   -1.9942   -8.1855    1.4782 H   0  0  0  0  0  0  0  0  0  0  0  0
   -1.6366   -8.9106    3.6774 H   0  0  0  0  0  0  0  0  0  0  0  0
   -0.1335   -7.9156    3.7588 H   0  0  0  0  0  0  0  0  0  0  0  0
   -1.4847   -5.8638    3.8733 H   0  0  0  0  0  0  0  0  0  0  0  0
   -2.9935   -6.8661    3.7810 H   0  0  0  0  0  0  0  0  0  0  0  0
   -2.4162   -7.9599    5.8845 H   0  0  0  0  0  0  0  0  0  0  0  0
   -0.8977   -6.9817    5.9780 H   0  0  0  0  0  0  0  0  0  0  0  0
   -2.2371   -4.9248    6.0144 H   0  0  0  0  0  0  0  0  0  0  0  0
   -3.7447   -5.9628    5.9929 H   0  0  0  0  0  0  0  0  0  0  0  0
   -0.7785   -3.8888    9.5868 H   0  0  0  0  0  0  0  0  0  0  0  0
   -1.7401   -2.8855   10.6920 H   0  0  0  0  0  0  0  0  0  0  0  0
   -0.7963   -4.1682   12.5967 H   0  0  0  0  0  0  0  0  0  0  0  0
    2.1639   -5.8180   12.5858 H   0  0  0  0  0  0  0  0  0  0  0  0
    3.3522   -3.2103   10.2291 H   0  0  0  0  0  0  0  0  0  0  0  0
    5.1823   -7.7345    6.3375 H   0  0  0  0  0  0  0  0  0  0  0  0
    5.2352   -5.9931    6.7214 H   0  0  0  0  0  0  0  0  0  0  0  0
    2.5762   -9.6597    9.6028 H   0  0  0  0  0  0  0  0  0  0  0  0
    2.8989   -3.2283   12.3565 H   0  0  0  0  0  0  0  0  0  0  0  0
    2.4057   -3.5192   14.3724 H   0  0  0  0  0  0  0  0  0  0  0  0
    1.0649   -2.5437   10.7857 H   0  0  0  0  0  0  0  0  0  0  0  0
    0.4060   -2.1024   13.4702 H   0  0  0  0  0  0  0  0  0  0  0  0
  1  2  3  0
  2  3  1  0
  3  4  1  0
  4  5  1  0
  5  6  2  0
  5  7  1  0
  7  8  1  0
  8  9  1  0
  9 10  1  0
 10 11  1  0
 11 12  1  0
 12 13  2  0
 12 14  1  0
 14 15  1  0
 15 16  2  0
 15 17  1  0
 15 18  1  0
 18 19  1  0
 19 20  1  0
 20 21  1  0
 20 35  1  0
 21 22  1  0
 22 23  1  0
 22 33  1  0
 23 24  1  0
 23 32  1  0
 24 25  2  0
 25 26  1  0
 26 27  2  0
 26 32  1  0
 27 28  1  0
 27 29  1  0
 29 30  2  0
 30 31  1  0
 31 32  2  0
 33 34  1  0
 33 35  1  0
 35 36  1  0
  1 37  1  0
  3 38  1  0
  3 39  1  0
  7 40  1  0
  8 41  1  0
  8 42  1  0
  9 43  1  0
  9 44  1  0
 10 45  1  0
 10 46  1  0
 11 47  1  0
 11 48  1  0
 19 49  1  0
 19 50  1  0
 20 51  1  1
 22 52  1  1
 24 53  1  0
 28 54  1  0
 28 55  1  0
 30 56  1  0
 33 57  1  1
 34 58  1  0
 35 59  1  6
 36 60  1  0
M  CHG  1  17  -1
M  END
