Ch5_AMP
     RDKit          3D

 72 75  0  0  0  0  0  0  0  0999 V2000
    1.4560   -8.6780   -4.9250 C   0  0  0  0  0  0  0  0  0  0  0  0
    1.4530   -8.4500   -3.8300 C   0  0  0  0  0  0  0  0  0  0  0  0
    1.4100   -8.1390   -2.3470 C   0  0  1  0  0  0  0  0  0  0  0  0
    0.7580   -6.7960   -2.1020 C   0  0  0  0  0  0  0  0  0  0  0  0
    0.6610   -6.4880   -0.6260 C   0  0  0  0  0  0  0  0  0  0  0  0
   -0.0940   -7.5540    0.1150 C   0  0  2  0  0  0  0  0  0  0  0  0
   -0.1440   -7.3070    1.5990 C   0  0  0  0  0  0  0  0  0  0  0  0
    0.6730   -6.6180    2.1670 O   0  0  0  0  0  0  0  0  0  0  0  0
   -1.1300   -7.9290    2.2530 N   0  0  0  0  0  0  0  0  0  0  0  0
   -1.2370   -7.9320    3.6800 C   0  0  0  0  0  0  0  0  0  0  0  0
   -2.0140   -6.7690    4.2490 C   0  0  0  0  0  0  0  0  0  0  0  0
   -2.0420   -6.8850    5.7580 C   0  0  0  0  0  0  0  0  0  0  0  0
   -2.7960   -5.7510    6.3970 C   0  0  0  0  0  0  0  0  0  0  0  0
   -2.8170   -5.8380    7.9140 C   0  0  0  0  0  0  0  0  0  0  0  0
   -2.3110   -6.7440    8.5470 O   0  0  0  0  0  0  0  0  0  0  0  0
   -3.4520   -4.8060    8.5040 O   0  0  0  0  0  0  0  0  0  0  0  0
   -3.7880   -4.7060   10.0680 P   0  0  0  0  0  0  0  0  0  0  0  0
   -4.6030   -5.8700   10.4860 O   0  0  0  0  0  0  0  0  0  0  0  0
   -4.3550   -3.3460   10.2960 O   0  0  0  0  0  0  0  0  0  0  0  0
   -2.3420   -4.7980   10.7730 O   0  0  0  0  0  0  0  0  0  0  0  0
   -1.4130   -3.7440   10.7260 C   0  0  0  0  0  0  0  0  0  0  0  0
   -0.3740   -4.0050   11.7990 C   0  0  1  0  0  0  0  0  0  0  0  0
    0.3830   -5.1510   11.4250 O   0  0  0  0  0  0  0  0  0  0  0  0
    1.7310   -4.9820   11.8600 C   0  0  1  0  0  0  0  0  0  0  0  0
    2.5630   -5.0890   10.6660 N   0  0  0  0  0  0  0  0  0  0  0  0
    3.1500   -4.1050    9.9580 C   0  0  0  0  0  0  0  0  0  0  0  0
    3.8030   -4.5880    8.9230 N   0  0  0  0  0  0  0  0  0  0  0  0
    3.6390   -5.9200    8.9710 C   0  0  0  0  0  0  0  0  0  0  0  0
    4.0760   -6.9840    8.1550 C   0  0  0  0  0  0  0  0  0  0  0  0
    4.8420   -6.7660    7.0530 N   0  0  0  0  0  0  0  0  0  0  0  0
    3.7190   -8.2520    8.4800 N   0  0  0  0  0  0  0  0  0  0  0  0
    2.9460   -8.4740    9.5670 C   0  0  0  0  0  0  0  0  0  0  0  0
    2.4950   -7.5050   10.3850 N   0  0  0  0  0  0  0  0  0  0  0  0
    2.8440   -6.2510   10.0710 C   0  0  0  0  0  0  0  0  0  0  0  0
    1.8340   -3.6360   12.4950 C   0  0  2  0  0  0  0  0  0  0  0  0
    1.6650   -3.8090   13.9260 O   0  0  0  0  0  0  0  0  0  0  0  0
    0.6450   -2.9040   11.9260 C   0  0  2  0  0  0  0  0  0  0  0  0
    0.1990   -1.8780   12.8220 O   0  0  0  0  0  0  0  0  0  0  0  0
    0.5750   -8.8910   -0.1400 C   0  0  0  0  0  0  0  0  0  0  0  0
    0.6690   -9.2130   -1.5990 C   0  0  0  0  0  0  0  0  0  0  0  0
    1.4590   -8.9022   -6.0019 H   0  0  0  0  0  0  0  0  0  0  0  0
    2.4456   -8.1025   -1.9780 H   0  0  0  0  0  0  0  0  0  0  0  0
    1.3564   -6.0136   -2.5917 H   0  0  0  0  0  0  0  0  0  0  0  0
   -0.2608   -6.8266   -2.5156 H   0  0  0  0  0  0  0  0  0  0  0  0
    1.6765   -6.4153   -0.2094 H   0  0  0  0  0  0  0  0  0  0  0  0
    0.1181   -5.5385   -0.5086 H   0  0  0  0  0  0  0  0  0  0  0  0
   -1.1302   -7.5453   -0.2541 H   0  0  0  0  0  0  0  0  0  0  0  0
   -1.8449   -8.4286    1.7052 H   0  0  0  0  0  0  0  0  0  0  0  0
   -1.7374   -8.8627    3.9857 H   0  0  0  0  0  0  0  0  0  0  0  0
   -0.2127   -7.8475    4.0721 H   0  0  0  0  0  0  0  0  0  0  0  0
   -1.5285   -5.8250    3.9608 H   0  0  0  0  0  0  0  0  0  0  0  0
   -3.0415   -6.7815    3.8566 H   0  0  0  0  0  0  0  0  0  0  0  0
   -2.5274   -7.8332    6.0322 H   0  0  0  0  0  0  0  0  0  0  0  0
   -1.0041   -6.8496    6.1206 H   0  0  0  0  0  0  0  0  0  0  0  0
   -2.3188   -4.8036    6.1060 H   0  0  0  0  0  0  0  0  0  0  0  0
   -3.8376   -5.8077    6.0478 H   0  0  0  0  0  0  0  0  0  0  0  0
   -0.9319   -3.7110    9.7373 H   0  0  0  0  0  0  0  0  0  0  0  0
   -1.9126   -2.7790   10.8966 H   0  0  0  0  0  0  0  0  0  0  0  0
   -0.9309   -4.1096   12.7418 H   0  0  0  0  0  0  0  0  0  0  0  0
    2.0539   -5.7323   12.5967 H   0  0  0  0  0  0  0  0  0  0  0  0
    3.0911   -3.0364   10.2121 H   0  0  0  0  0  0  0  0  0  0  0  0
    5.1483   -7.5604    6.4734 H   0  0  0  0  0  0  0  0  0  0  0  0
    5.1160   -5.8064    6.7978 H   0  0  0  0  0  0  0  0  0  0  0  0
    2.6680   -9.5130    9.7975 H   0  0  0  0  0  0  0  0  0  0  0  0
    2.7850   -3.1128   12.3164 H   0  0  0  0  0  0  0  0  0  0  0  0
    2.2697   -3.1900   14.4069 H   0  0  0  0  0  0  0  0  0  0  0  0
    0.8510   -2.3865   10.9775 H   0  0  0  0  0  0  0  0  0  0  0  0
    0.3289   -2.1769   13.7568 H   0  0  0  0  0  0  0  0  0  0  0  0
    1.5905   -8.8641    0.2820 H   0  0  0  0  0  0  0  0  0  0  0  0
   -0.0389   -9.6695    0.3364 H   0  0  0  0  0  0  0  0  0  0  0  0
   -0.3463   -9.3029   -2.0126 H   0  0  0  0  0  0  0  0  0  0  0  0
    1.2193  -10.1587   -1.7120 H   0  0  0  0  0  0  0  0  0  0  0  0
  1  2  3  0
  2  3  1  0
  3  4  1  0
  3 40  1  0
  4  5  1  0
  5  6  1  0
  6  7  1  0
  6 39  1  0
  7  8  2  0
  7  9  1  0
  9 10  1  0
 10 11  1  0
 11 12  1  0
 12 13  1  0
 13 14  1  0
 14 15  2  0
 14 16  1  0
 16 17  1  0
 17 18  2  0
 17 19  1  0
 17 20  1  0
 20 21  1  0
 21 22  1  0
 22 23  1  0
 22 37  1  0
 23 24  1  0
 24 25  1  0
 24 35  1  0
 25 26  1  0
 25 34  1  0
 26 27  2  0
 27 28  1  0
 28 29  2  0
 28 34  1  0
 29 30  1  0
 29 31  1  0
 31 32  2  0
 32 33  1  0
 33 34  2  0
 35 36  1  0
 35 37  1  0
 37 38  1  0
 39 40  1  0
  1 41  1  0
  3 42  1  1
  4 43  1  0
  4 44  1  0
  5 45  1  0
  5 46  1  0
  6 47  1  6
  9 48  1  0
 10 49  1  0
 10 50  1  0
 11 51  1  0
 11 52  1  0
 12 53  1  0
 12 54  1  0
 13 55  1  0
 13 56  1  0
 21 57  1  0
 21 58  1  0
 22 59  1  1
 24 60  1  1
 26 61  1  0
 30 62  1  0
 30 63  1  0
 32 64  1  0
 35 65  1  1
 36 66  1  0
 37 67  1  6
 38 68  1  0
 39 69  1  0
 39 70  1  0
 40 71  1  0
 40 72  1  0
M  CHG  1  19  -1
M  END
