LA_AMP
     RDKit          3D

 59 62  0  0  0  0  0  0  0  0999 V2000
    4.9380   -6.9770    6.9580 N   0  0  0  0  0  0  0  0  0  0  0  0
    4.1700   -7.2050    8.0470 C   0  0  0  0  0  0  0  0  0  0  0  0
    3.7360   -8.4570    8.3380 N   0  0  0  0  0  0  0  0  0  0  0  0
    2.9520   -8.6810    9.4310 C   0  0  0  0  0  0  0  0  0  0  0  0
    2.5580   -7.7010   10.2840 N   0  0  0  0  0  0  0  0  0  0  0  0
    2.9720   -6.4560   10.0230 C   0  0  0  0  0  0  0  0  0  0  0  0
    3.7950   -6.1360    8.9110 C   0  0  0  0  0  0  0  0  0  0  0  0
    4.0480   -4.7990    8.9150 N   0  0  0  0  0  0  0  0  0  0  0  0
    3.4160   -4.3170    9.9930 C   0  0  0  0  0  0  0  0  0  0  0  0
    2.7710   -5.2830   10.6680 N   0  0  0  0  0  0  0  0  0  0  0  0
    1.9270   -5.1670   11.8760 C   0  0  2  0  0  0  0  0  0  0  0  0
    0.5780   -5.2860   11.4180 O   0  0  0  0  0  0  0  0  0  0  0  0
   -0.1400   -4.1170   11.7900 C   0  0  2  0  0  0  0  0  0  0  0  0
   -1.1790   -3.8330   10.7230 C   0  0  0  0  0  0  0  0  0  0  0  0
   -2.1200   -4.8780   10.7760 O   0  0  0  0  0  0  0  0  0  0  0  0
   -3.5630   -4.7840   10.0580 P   0  0  0  0  0  0  0  0  0  0  0  0
   -4.3950   -5.9390   10.4690 O   0  0  0  0  0  0  0  0  0  0  0  0
   -4.1140   -3.4150   10.2690 O   0  0  0  0  0  0  0  0  0  0  0  0
   -3.1940   -4.9090    8.5120 O   0  0  0  0  0  0  0  0  0  0  0  0
   -2.5510   -5.9820    7.9200 C   0  0  0  0  0  0  0  0  0  0  0  0
   -2.0210   -6.8670    8.5470 O   0  0  0  0  0  0  0  0  0  0  0  0
   -2.5750   -5.9030    6.4150 C   0  0  0  0  0  0  0  0  0  0  0  0
   -1.9380   -7.0640    5.7000 C   0  0  0  0  0  0  0  0  0  0  0  0
   -1.8550   -6.8010    4.2170 C   0  0  0  0  0  0  0  0  0  0  0  0
   -1.1530   -7.9050    3.5000 C   0  0  0  0  0  0  0  0  0  0  0  0
   -0.8720   -7.6260    2.0370 C   0  0  2  0  0  0  0  0  0  0  0  0
   -0.0810   -8.7280    1.3730 C   0  0  0  0  0  0  0  0  0  0  0  0
    0.4290   -8.3440    0.0220 C   0  0  0  0  0  0  0  0  0  0  0  0
    0.7500   -6.6190   -0.0580 S   0  0  0  0  0  0  0  0  0  0  0  0
    0.0370   -6.0970    1.7420 S   0  0  0  0  0  0  0  0  0  0  0  0
    0.9040   -3.0420   11.9160 C   0  0  1  0  0  0  0  0  0  0  0  0
    0.4740   -1.9660   12.7410 O   0  0  0  0  0  0  0  0  0  0  0  0
    2.0320   -3.8220   12.5690 C   0  0  1  0  0  0  0  0  0  0  0  0
    1.7590   -4.0150   13.9530 O   0  0  0  0  0  0  0  0  0  0  0  0
    5.2618   -6.0223    6.7469 H   0  0  0  0  0  0  0  0  0  0  0  0
    5.1993   -7.7580    6.3394 H   0  0  0  0  0  0  0  0  0  0  0  0
    2.6212   -9.7106    9.6323 H   0  0  0  0  0  0  0  0  0  0  0  0
    3.4241   -3.2579   10.2899 H   0  0  0  0  0  0  0  0  0  0  0  0
    2.2480   -5.9341   12.5961 H   0  0  0  0  0  0  0  0  0  0  0  0
   -0.6924   -4.2027   12.7374 H   0  0  0  0  0  0  0  0  0  0  0  0
   -1.6721   -2.8702   10.9228 H   0  0  0  0  0  0  0  0  0  0  0  0
   -0.7137   -3.7741    9.7280 H   0  0  0  0  0  0  0  0  0  0  0  0
   -3.6255   -5.8415    6.0946 H   0  0  0  0  0  0  0  0  0  0  0  0
   -1.9801   -5.0173    6.1473 H   0  0  0  0  0  0  0  0  0  0  0  0
   -0.9234   -7.2184    6.0960 H   0  0  0  0  0  0  0  0  0  0  0  0
   -2.5544   -7.9600    5.8647 H   0  0  0  0  0  0  0  0  0  0  0  0
   -2.8741   -6.7055    3.8142 H   0  0  0  0  0  0  0  0  0  0  0  0
   -1.2827   -5.8741    4.0643 H   0  0  0  0  0  0  0  0  0  0  0  0
   -0.1931   -8.0871    4.0055 H   0  0  0  0  0  0  0  0  0  0  0  0
   -1.8263   -8.7744    3.5288 H   0  0  0  0  0  0  0  0  0  0  0  0
   -1.8801   -7.5473    1.6038 H   0  0  0  0  0  0  0  0  0  0  0  0
    0.7770   -8.9794    2.0138 H   0  0  0  0  0  0  0  0  0  0  0  0
   -0.7569   -9.5855    1.2395 H   0  0  0  0  0  0  0  0  0  0  0  0
    1.3599   -8.8936   -0.1814 H   0  0  0  0  0  0  0  0  0  0  0  0
   -0.3361   -8.5948   -0.7275 H   0  0  0  0  0  0  0  0  0  0  0  0
    1.1650   -2.5568   10.9639 H   0  0  0  0  0  0  0  0  0  0  0  0
    0.5751   -2.2191   13.6927 H   0  0  0  0  0  0  0  0  0  0  0  0
    3.0103   -3.3260   12.4859 H   0  0  0  0  0  0  0  0  0  0  0  0
    2.4366   -3.5360   14.4929 H   0  0  0  0  0  0  0  0  0  0  0  0
  1  2  1  0
  2  3  2  0
  2  7  1  0
  3  4  1  0
  4  5  2  0
  5  6  1  0
  6  7  2  0
  6 10  1  0
  7  8  1  0
  8  9  2  0
  9 10  1  0
 10 11  1  0
 11 12  1  0
 11 33  1  0
 12 13  1  0
 13 14  1  0
 13 31  1  0
 14 15  1  0
 15 16  1  0
 16 17  2  0
 16 18  1  0
 16 19  1  0
 19 20  1  0
 20 21  2  0
 20 22  1  0
 22 23  1  0
 23 24  1  0
 24 25  1  0
 25 26  1  0
 26 27  1  0
 26 30  1  0
 27 28  1  0
 28 29  1  0
 29 30  1  0
 31 32  1  0
 31 33  1  0
 33 34  1  0
  1 35  1  0
  1 36  1  0
  4 37  1  0
  9 38  1  0
 11 39  1  1
 13 40  1  1
 14 41  1  0
 14 42  1  0
 22 43  1  0
 22 44  1  0
 23 45  1  0
 23 46  1  0
 24 47  1  0
 24 48  1  0
 25 49  1  0
 25 50  1  0
 26 51  1  6
 27 52  1  0
 27 53  1  0
 28 54  1  0
 28 55  1  0
 31 56  1  6
 32 57  1  0
 33 58  1  1
 34 59  1  0
M  CHG  1  18  -1
M  END
