M5_AMP
     RDKit          3D

 66 69  0  0  0  0  0  0  0  0999 V2000
    2.7940   -5.2730   -3.1530 C   0  0  0  0  0  0  0  0  0  0  0  0
    2.2360   -6.0320   -2.5300 C   0  0  0  0  0  0  0  0  0  0  0  0
    1.5340   -7.0170   -1.7350 C   0  0  0  0  0  0  0  0  0  0  0  0
    1.4750   -8.3370   -2.1400 C   0  0  0  0  0  0  0  0  0  0  0  0
    0.7940   -9.2780   -1.3600 C   0  0  0  0  0  0  0  0  0  0  0  0
    0.1990   -8.8780   -0.1640 C   0  0  0  0  0  0  0  0  0  0  0  0
    0.2560   -7.5480    0.2330 C   0  0  0  0  0  0  0  0  0  0  0  0
   -0.3450   -7.0900    1.5050 C   0  0  0  0  0  0  0  0  0  0  0  0
   -0.2960   -5.9210    1.8150 O   0  0  0  0  0  0  0  0  0  0  0  0
   -0.9140   -8.0470    2.2900 N   0  0  0  0  0  0  0  0  0  0  0  0
   -1.3400   -7.9910    3.6360 C   0  0  0  0  0  0  0  0  0  0  0  0
   -2.0310   -6.7680    4.1880 C   0  0  0  0  0  0  0  0  0  0  0  0
   -2.1940   -6.9320    5.6840 C   0  0  0  0  0  0  0  0  0  0  0  0
   -2.7890   -5.7060    6.3280 C   0  0  0  0  0  0  0  0  0  0  0  0
   -2.8800   -5.8160    7.8500 C   0  0  0  0  0  0  0  0  0  0  0  0
   -2.4510   -6.7450    8.4780 O   0  0  0  0  0  0  0  0  0  0  0  0
   -3.5060   -4.7350    8.4460 O   0  0  0  0  0  0  0  0  0  0  0  0
   -3.8910   -4.6710    9.9990 P   0  0  0  0  0  0  0  0  0  0  0  0
   -4.6860   -5.8870   10.3550 O   0  0  0  0  0  0  0  0  0  0  0  0
   -4.4770   -3.3340   10.2550 O   0  0  0  0  0  0  0  0  0  0  0  0
   -2.4430   -4.7810   10.7350 O   0  0  0  0  0  0  0  0  0  0  0  0
   -1.4910   -3.7290   10.6900 C   0  0  0  0  0  0  0  0  0  0  0  0
   -0.4480   -4.0280   11.7750 C   0  0  1  0  0  0  0  0  0  0  0  0
    0.3100   -5.1710   11.3890 O   0  0  0  0  0  0  0  0  0  0  0  0
    1.6420   -5.0120   11.8690 C   0  0  1  0  0  0  0  0  0  0  0  0
    2.4880   -5.0970   10.6750 N   0  0  0  0  0  0  0  0  0  0  0  0
    3.0740   -4.1070    9.9750 C   0  0  0  0  0  0  0  0  0  0  0  0
    3.7360   -4.5830    8.9230 N   0  0  0  0  0  0  0  0  0  0  0  0
    3.5640   -5.9290    8.9610 C   0  0  0  0  0  0  0  0  0  0  0  0
    3.9940   -7.0030    8.1350 C   0  0  0  0  0  0  0  0  0  0  0  0
    4.7610   -6.7780    7.0270 N   0  0  0  0  0  0  0  0  0  0  0  0
    3.6210   -8.2730    8.4570 N   0  0  0  0  0  0  0  0  0  0  0  0
    2.8430   -8.4980    9.5500 C   0  0  0  0  0  0  0  0  0  0  0  0
    2.4010   -7.5290   10.3790 N   0  0  0  0  0  0  0  0  0  0  0  0
    2.7620   -6.2620   10.0660 C   0  0  0  0  0  0  0  0  0  0  0  0
    1.7360   -3.6780   12.5530 C   0  0  2  0  0  0  0  0  0  0  0  0
    1.5190   -3.8940   13.9520 O   0  0  0  0  0  0  0  0  0  0  0  0
    0.5620   -2.9180   11.9510 C   0  0  2  0  0  0  0  0  0  0  0  0
    0.0860   -1.9120   12.8400 O   0  0  0  0  0  0  0  0  0  0  0  0
    0.9320   -6.6190   -0.5630 C   0  0  0  0  0  0  0  0  0  0  0  0
    3.3375   -4.5338   -3.7598 H   0  0  0  0  0  0  0  0  0  0  0  0
    1.9633   -8.6478   -3.0754 H   0  0  0  0  0  0  0  0  0  0  0  0
    0.7284  -10.3259   -1.6879 H   0  0  0  0  0  0  0  0  0  0  0  0
   -0.3167   -9.6173    0.4665 H   0  0  0  0  0  0  0  0  0  0  0  0
   -1.0564   -8.9568    1.8286 H   0  0  0  0  0  0  0  0  0  0  0  0
   -2.0345   -8.8321    3.7783 H   0  0  0  0  0  0  0  0  0  0  0  0
   -0.3889   -7.9983    4.1885 H   0  0  0  0  0  0  0  0  0  0  0  0
   -1.4245   -5.8746    3.9781 H   0  0  0  0  0  0  0  0  0  0  0  0
   -3.0175   -6.6515    3.7156 H   0  0  0  0  0  0  0  0  0  0  0  0
   -2.8550   -7.7899    5.8767 H   0  0  0  0  0  0  0  0  0  0  0  0
   -1.1958   -7.0914    6.1177 H   0  0  0  0  0  0  0  0  0  0  0  0
   -2.1618   -4.8382    6.0760 H   0  0  0  0  0  0  0  0  0  0  0  0
   -3.8140   -5.5968    5.9439 H   0  0  0  0  0  0  0  0  0  0  0  0
   -1.0100   -3.6956    9.7013 H   0  0  0  0  0  0  0  0  0  0  0  0
   -1.9713   -2.7545   10.8622 H   0  0  0  0  0  0  0  0  0  0  0  0
   -1.0125   -4.1659   12.7090 H   0  0  0  0  0  0  0  0  0  0  0  0
    1.9533   -5.7697   12.6031 H   0  0  0  0  0  0  0  0  0  0  0  0
    3.0133   -3.0409   10.2390 H   0  0  0  0  0  0  0  0  0  0  0  0
    5.0631   -7.5690    6.4405 H   0  0  0  0  0  0  0  0  0  0  0  0
    5.0371   -5.8174    6.7782 H   0  0  0  0  0  0  0  0  0  0  0  0
    2.5557   -9.5363    9.7724 H   0  0  0  0  0  0  0  0  0  0  0  0
    2.6947   -3.1527   12.4303 H   0  0  0  0  0  0  0  0  0  0  0  0
    2.1152   -3.3005   14.4739 H   0  0  0  0  0  0  0  0  0  0  0  0
    0.7998   -2.3763   11.0236 H   0  0  0  0  0  0  0  0  0  0  0  0
    0.2249   -2.2055   13.7752 H   0  0  0  0  0  0  0  0  0  0  0  0
    0.9831   -5.5653   -0.2514 H   0  0  0  0  0  0  0  0  0  0  0  0
  1  2  3  0
  2  3  1  0
  3  4  2  0
  3 40  1  0
  4  5  1  0
  5  6  2  0
  6  7  1  0
  7  8  1  0
  7 40  2  0
  8  9  2  0
  8 10  1  0
 10 11  1  0
 11 12  1  0
 12 13  1  0
 13 14  1  0
 14 15  1  0
 15 16  2  0
 15 17  1  0
 17 18  1  0
 18 19  2  0
 18 20  1  0
 18 21  1  0
 21 22  1  0
 22 23  1  0
 23 24  1  0
 23 38  1  0
 24 25  1  0
 25 26  1  0
 25 36  1  0
 26 27  1  0
 26 35  1  0
 27 28  2  0
 28 29  1  0
 29 30  2  0
 29 35  1  0
 30 31  1  0
 30 32  1  0
 32 33  2  0
 33 34  1  0
 34 35  2  0
 36 37  1  0
 36 38  1  0
 38 39  1  0
  1 41  1  0
  4 42  1  0
  5 43  1  0
  6 44  1  0
 10 45  1  0
 11 46  1  0
 11 47  1  0
 12 48  1  0
 12 49  1  0
 13 50  1  0
 13 51  1  0
 14 52  1  0
 14 53  1  0
 22 54  1  0
 22 55  1  0
 23 56  1  1
 25 57  1  1
 27 58  1  0
 31 59  1  0
 31 60  1  0
 33 61  1  0
 36 62  1  1
 37 63  1  0
 38 64  1  6
 39 65  1  0
 40 66  1  0
M  CHG  1  20  -1
M  END
