MP5_AMP
     RDKit          3D

 69 72  0  0  0  0  0  0  0  0999 V2000
    1.8480   -8.9560   -4.8690 C   0  0  0  0  0  0  0  0  0  0  0  0
    1.5610   -8.6760   -3.8270 C   0  0  0  0  0  0  0  0  0  0  0  0
    1.1860   -8.3170   -2.4760 C   0  0  0  0  0  0  0  0  0  0  0  0
    0.4570   -9.2150   -1.7070 C   0  0  0  0  0  0  0  0  0  0  0  0
    0.1050   -8.8900   -0.4130 C   0  0  0  0  0  0  0  0  0  0  0  0
    0.4410   -7.6700    0.1430 C   0  0  0  0  0  0  0  0  0  0  0  0
    0.0750   -7.3070    1.5450 C   0  0  0  0  0  0  0  0  0  0  0  0
    0.5790   -6.3480    2.1040 O   0  0  0  0  0  0  0  0  0  0  0  0
   -0.8240   -8.1060    2.1690 N   0  0  0  0  0  0  0  0  0  0  0  0
   -1.0750   -8.1040    3.5790 C   0  0  0  0  0  0  0  0  0  0  0  0
   -1.8660   -6.9440    4.1350 C   0  0  0  0  0  0  0  0  0  0  0  0
   -2.0100   -7.1160    5.6220 C   0  0  0  0  0  0  0  0  0  0  0  0
   -2.5590   -5.8800    6.2910 C   0  0  0  0  0  0  0  0  0  0  0  0
   -2.6080   -6.0030    7.8030 C   0  0  0  0  0  0  0  0  0  0  0  0
   -2.1130   -6.9020    8.4270 O   0  0  0  0  0  0  0  0  0  0  0  0
   -3.2760   -4.9620    8.4040 O   0  0  0  0  0  0  0  0  0  0  0  0
   -3.6530   -4.8830    9.9600 P   0  0  0  0  0  0  0  0  0  0  0  0
   -4.2400   -3.5730   10.2360 O   0  0  0  0  0  0  0  0  0  0  0  0
   -4.4200   -6.0990   10.3380 O   0  0  0  0  0  0  0  0  0  0  0  0
   -2.2130   -4.9700   10.6730 O   0  0  0  0  0  0  0  0  0  0  0  0
   -1.2990   -3.9170   10.6020 C   0  0  0  0  0  0  0  0  0  0  0  0
   -0.2810   -4.1380   11.7070 C   0  0  1  0  0  0  0  0  0  0  0  0
    0.4690   -5.2990   11.3990 O   0  0  0  0  0  0  0  0  0  0  0  0
    1.7900   -5.1310   11.8770 C   0  0  1  0  0  0  0  0  0  0  0  0
    2.6470   -5.2520   10.6780 N   0  0  0  0  0  0  0  0  0  0  0  0
    3.2880   -4.2850   10.0060 C   0  0  0  0  0  0  0  0  0  0  0  0
    3.9380   -4.7610    8.9460 N   0  0  0  0  0  0  0  0  0  0  0  0
    3.7050   -6.0950    8.9500 C   0  0  0  0  0  0  0  0  0  0  0  0
    4.0960   -7.1590    8.1000 C   0  0  0  0  0  0  0  0  0  0  0  0
    4.8700   -6.9430    7.0070 N   0  0  0  0  0  0  0  0  0  0  0  0
    3.6660   -8.4190    8.3890 N   0  0  0  0  0  0  0  0  0  0  0  0
    2.8750   -8.6310    9.4720 C   0  0  0  0  0  0  0  0  0  0  0  0
    2.4680   -7.6770   10.3120 N   0  0  0  0  0  0  0  0  0  0  0  0
    2.8790   -6.4170   10.0420 C   0  0  0  0  0  0  0  0  0  0  0  0
    1.8560   -3.7650   12.5140 C   0  0  2  0  0  0  0  0  0  0  0  0
    1.5630   -3.9090   13.9010 O   0  0  0  0  0  0  0  0  0  0  0  0
    0.7310   -3.0370   11.8200 C   0  0  2  0  0  0  0  0  0  0  0  0
    0.2450   -1.9550   12.5830 O   0  0  0  0  0  0  0  0  0  0  0  0
    1.1700   -6.7730   -0.6330 C   0  0  0  0  0  0  0  0  0  0  0  0
    1.5520   -7.0890   -1.9380 C   0  0  0  0  0  0  0  0  0  0  0  0
    2.3650   -6.1000   -2.7430 C   0  0  0  0  0  0  0  0  0  0  0  0
    2.1308   -9.2319   -5.8956 H   0  0  0  0  0  0  0  0  0  0  0  0
    0.1600  -10.1861   -2.1299 H   0  0  0  0  0  0  0  0  0  0  0  0
   -0.4561   -9.6189    0.1902 H   0  0  0  0  0  0  0  0  0  0  0  0
   -1.3655   -8.7616    1.5878 H   0  0  0  0  0  0  0  0  0  0  0  0
   -1.6253   -9.0257    3.8190 H   0  0  0  0  0  0  0  0  0  0  0  0
   -0.0820   -8.0207    4.0448 H   0  0  0  0  0  0  0  0  0  0  0  0
   -1.3385   -6.0025    3.9222 H   0  0  0  0  0  0  0  0  0  0  0  0
   -2.8609   -6.9148    3.6667 H   0  0  0  0  0  0  0  0  0  0  0  0
   -2.6927   -7.9563    5.8164 H   0  0  0  0  0  0  0  0  0  0  0  0
   -1.0094   -7.3070    6.0371 H   0  0  0  0  0  0  0  0  0  0  0  0
   -1.9193   -5.0245    6.0284 H   0  0  0  0  0  0  0  0  0  0  0  0
   -3.5909   -5.7416    5.9361 H   0  0  0  0  0  0  0  0  0  0  0  0
   -0.7990   -3.9161    9.6222 H   0  0  0  0  0  0  0  0  0  0  0  0
   -1.8058   -2.9482   10.7229 H   0  0  0  0  0  0  0  0  0  0  0  0
   -0.8556   -4.2023   12.6428 H   0  0  0  0  0  0  0  0  0  0  0  0
    2.1125   -5.8633   12.6318 H   0  0  0  0  0  0  0  0  0  0  0  0
    3.2781   -3.2240   10.2961 H   0  0  0  0  0  0  0  0  0  0  0  0
    5.1414   -7.7327    6.4040 H   0  0  0  0  0  0  0  0  0  0  0  0
    5.1862   -5.9893    6.7802 H   0  0  0  0  0  0  0  0  0  0  0  0
    2.5464   -9.6617    9.6711 H   0  0  0  0  0  0  0  0  0  0  0  0
    2.8260   -3.2540   12.4250 H   0  0  0  0  0  0  0  0  0  0  0  0
    2.3105   -3.5416   14.4361 H   0  0  0  0  0  0  0  0  0  0  0  0
    1.0140   -2.5727   10.8638 H   0  0  0  0  0  0  0  0  0  0  0  0
    0.3382   -2.1625   13.5465 H   0  0  0  0  0  0  0  0  0  0  0  0
    1.4502   -5.7970   -0.2099 H   0  0  0  0  0  0  0  0  0  0  0  0
    2.9127   -5.4338   -2.0602 H   0  0  0  0  0  0  0  0  0  0  0  0
    3.0806   -6.6438   -3.3772 H   0  0  0  0  0  0  0  0  0  0  0  0
    1.6930   -5.5031   -3.3772 H   0  0  0  0  0  0  0  0  0  0  0  0
  1  2  3  0
  2  3  1  0
  3  4  2  0
  3 40  1  0
  4  5  1  0
  5  6  2  0
  6  7  1  0
  6 39  1  0
  7  8  2  0
  7  9  1  0
  9 10  1  0
 10 11  1  0
 11 12  1  0
 12 13  1  0
 13 14  1  0
 14 15  2  0
 14 16  1  0
 16 17  1  0
 17 18  2  0
 17 19  1  0
 17 20  1  0
 20 21  1  0
 21 22  1  0
 22 23  1  0
 22 37  1  0
 23 24  1  0
 24 25  1  0
 24 35  1  0
 25 26  1  0
 25 34  1  0
 26 27  2  0
 27 28  1  0
 28 29  2  0
 28 34  1  0
 29 30  1  0
 29 31  1  0
 31 32  2  0
 32 33  1  0
 33 34  2  0
 35 36  1  0
 35 37  1  0
 37 38  1  0
 39 40  2  0
 40 41  1  0
  1 42  1  0
  4 43  1  0
  5 44  1  0
  9 45  1  0
 10 46  1  0
 10 47  1  0
 11 48  1  0
 11 49  1  0
 12 50  1  0
 12 51  1  0
 13 52  1  0
 13 53  1  0
 21 54  1  0
 21 55  1  0
 22 56  1  1
 24 57  1  1
 26 58  1  0
 30 59  1  0
 30 60  1  0
 32 61  1  0
 35 62  1  1
 36 63  1  0
 37 64  1  6
 38 65  1  0
 39 66  1  0
 41 67  1  0
 41 68  1  0
 41 69  1  0
M  CHG  1  19  -1
M  END
