OCTA_AMP
     RDKit          3D

 59 61  0  0  0  0  0  0  0  0999 V2000
    0.4470   -7.7880   -0.1090 C   0  0  0  0  0  0  0  0  0  0  0  0
    0.1580   -8.2860    1.3040 C   0  0  0  0  0  0  0  0  0  0  0  0
   -0.8930   -7.4360    2.0010 C   0  0  0  0  0  0  0  0  0  0  0  0
   -1.1020   -7.8260    3.4460 C   0  0  0  0  0  0  0  0  0  0  0  0
   -1.9420   -6.7960    4.1780 C   0  0  0  0  0  0  0  0  0  0  0  0
   -1.9770   -7.0410    5.6850 C   0  0  0  0  0  0  0  0  0  0  0  0
   -2.7000   -5.9060    6.3830 C   0  0  0  0  0  0  0  0  0  0  0  0
   -2.6910   -5.9800    7.9040 C   0  0  0  0  0  0  0  0  0  0  0  0
   -2.1690   -6.8600    8.5410 O   0  0  0  0  0  0  0  0  0  0  0  0
   -3.3540   -4.9160    8.5040 O   0  0  0  0  0  0  0  0  0  0  0  0
   -3.7020   -4.7920   10.0610 P   0  0  0  0  0  0  0  0  0  0  0  0
   -4.5150   -5.9640   10.4880 O   0  0  0  0  0  0  0  0  0  0  0  0
   -4.2730   -3.4360   10.2880 O   0  0  0  0  0  0  0  0  0  0  0  0
   -2.2590   -4.8880   10.7690 O   0  0  0  0  0  0  0  0  0  0  0  0
   -1.2930   -3.8590   10.6540 C   0  0  0  0  0  0  0  0  0  0  0  0
   -0.2410   -4.1190   11.7220 C   0  0  1  0  0  0  0  0  0  0  0  0
    0.5100   -5.2670   11.3670 O   0  0  0  0  0  0  0  0  0  0  0  0
    1.8370   -5.1310   11.8700 C   0  0  1  0  0  0  0  0  0  0  0  0
    2.7100   -5.2560   10.6710 N   0  0  0  0  0  0  0  0  0  0  0  0
    3.3590   -4.2910    9.9930 C   0  0  0  0  0  0  0  0  0  0  0  0
    4.0140   -4.7700    8.9290 N   0  0  0  0  0  0  0  0  0  0  0  0
    3.7740   -6.1150    8.9320 C   0  0  0  0  0  0  0  0  0  0  0  0
    4.1750   -7.1820    8.0840 C   0  0  0  0  0  0  0  0  0  0  0  0
    4.9620   -6.9570    6.9990 N   0  0  0  0  0  0  0  0  0  0  0  0
    3.7500   -8.4380    8.3730 N   0  0  0  0  0  0  0  0  0  0  0  0
    2.9480   -8.6570    9.4520 C   0  0  0  0  0  0  0  0  0  0  0  0
    2.5310   -7.6900   10.2970 N   0  0  0  0  0  0  0  0  0  0  0  0
    2.9370   -6.4310   10.0320 C   0  0  0  0  0  0  0  0  0  0  0  0
    1.9240   -3.7810   12.5370 C   0  0  2  0  0  0  0  0  0  0  0  0
    1.6350   -3.9500   13.9230 O   0  0  0  0  0  0  0  0  0  0  0  0
    0.7890   -3.0250   11.8550 C   0  0  2  0  0  0  0  0  0  0  0  0
    0.3280   -1.9500   12.6500 O   0  0  0  0  0  0  0  0  0  0  0  0
    0.9985   -6.8377   -0.0572 H   0  0  0  0  0  0  0  0  0  0  0  0
    1.0522   -8.5345   -0.6442 H   0  0  0  0  0  0  0  0  0  0  0  0
   -0.5014   -7.6329   -0.6442 H   0  0  0  0  0  0  0  0  0  0  0  0
   -0.2033   -9.3235    1.2485 H   0  0  0  0  0  0  0  0  0  0  0  0
    1.0895   -8.2211    1.8855 H   0  0  0  0  0  0  0  0  0  0  0  0
   -0.5742   -6.3838    1.9641 H   0  0  0  0  0  0  0  0  0  0  0  0
   -1.8464   -7.5939    1.4756 H   0  0  0  0  0  0  0  0  0  0  0  0
   -1.6139   -8.7989    3.4843 H   0  0  0  0  0  0  0  0  0  0  0  0
   -0.1189   -7.8846    3.9360 H   0  0  0  0  0  0  0  0  0  0  0  0
   -1.5191   -5.7978    3.9917 H   0  0  0  0  0  0  0  0  0  0  0  0
   -2.9724   -6.8728    3.8008 H   0  0  0  0  0  0  0  0  0  0  0  0
   -2.5027   -7.9858    5.8875 H   0  0  0  0  0  0  0  0  0  0  0  0
   -0.9458   -7.0966    6.0638 H   0  0  0  0  0  0  0  0  0  0  0  0
   -2.2224   -4.9613    6.0839 H   0  0  0  0  0  0  0  0  0  0  0  0
   -3.7541   -5.9767    6.0767 H   0  0  0  0  0  0  0  0  0  0  0  0
   -0.8322   -3.8826    9.6555 H   0  0  0  0  0  0  0  0  0  0  0  0
   -1.7541   -2.8693   10.7882 H   0  0  0  0  0  0  0  0  0  0  0  0
   -0.8071   -4.2124   12.6605 H   0  0  0  0  0  0  0  0  0  0  0  0
    2.1366   -5.8792   12.6187 H   0  0  0  0  0  0  0  0  0  0  0  0
    3.3517   -3.2294   10.2809 H   0  0  0  0  0  0  0  0  0  0  0  0
    5.2432   -7.7425    6.3950 H   0  0  0  0  0  0  0  0  0  0  0  0
    5.2772   -6.0010    6.7808 H   0  0  0  0  0  0  0  0  0  0  0  0
    2.6188   -9.6882    9.6475 H   0  0  0  0  0  0  0  0  0  0  0  0
    2.8992   -3.2785   12.4569 H   0  0  0  0  0  0  0  0  0  0  0  0
    2.3513   -3.5311   14.4629 H   0  0  0  0  0  0  0  0  0  0  0  0
    1.0625   -2.5482   10.9022 H   0  0  0  0  0  0  0  0  0  0  0  0
    0.4272   -2.1814   13.6075 H   0  0  0  0  0  0  0  0  0  0  0  0
  1  2  1  0
  2  3  1  0
  3  4  1  0
  4  5  1  0
  5  6  1  0
  6  7  1  0
  7  8  1  0
  8  9  2  0
  8 10  1  0
 10 11  1  0
 11 12  2  0
 11 13  1  0
 11 14  1  0
 14 15  1  0
 15 16  1  0
 16 17  1  0
 16 31  1  0
 17 18  1  0
 18 19  1  0
 18 29  1  0
 19 20  1  0
 19 28  1  0
 20 21  2  0
 21 22  1  0
 22 23  2  0
 22 28  1  0
 23 24  1  0
 23 25  1  0
 25 26  2  0
 26 27  1  0
 27 28  2  0
 29 30  1  0
 29 31  1  0
 31 32  1  0
  1 33  1  0
  1 34  1  0
  1 35  1  0
  2 36  1  0
  2 37  1  0
  3 38  1  0
  3 39  1  0
  4 40  1  0
  4 41  1  0
  5 42  1  0
  5 43  1  0
  6 44  1  0
  6 45  1  0
  7 46  1  0
  7 47  1  0
 15 48  1  0
 15 49  1  0
 16 50  1  1
 18 51  1  1
 20 52  1  0
 24 53  1  0
 24 54  1  0
 26 55  1  0
 29 56  1  1
 30 57  1  0
 31 58  1  6
 32 59  1  0
M  CHG  1  13  -1
M  END
