OP5_AMP
     RDKit          3D

 67 70  0  0  0  0  0  0  0  0999 V2000
    2.9330   -6.2960   -4.0360 C   0  0  0  0  0  0  0  0  0  0  0  0
    2.3660   -6.6150   -3.1300 C   0  0  0  0  0  0  0  0  0  0  0  0
    1.6360   -7.0550   -1.9510 C   0  0  0  0  0  0  0  0  0  0  0  0
    1.4250   -8.4020   -1.7540 C   0  0  0  0  0  0  0  0  0  0  0  0
    0.7420   -8.8310   -0.6280 C   0  0  0  0  0  0  0  0  0  0  0  0
    0.2620   -7.9190    0.3070 C   0  0  0  0  0  0  0  0  0  0  0  0
   -0.4230   -8.4300    1.5040 C   0  0  0  0  0  0  0  0  0  0  0  0
   -0.5740   -9.6270    1.6500 O   0  0  0  0  0  0  0  0  0  0  0  0
   -0.8520   -7.5700    2.4230 N   0  0  0  0  0  0  0  0  0  0  0  0
   -1.4640   -7.9520    3.6630 C   0  0  0  0  0  0  0  0  0  0  0  0
   -1.8680   -6.7220    4.4060 C   0  0  0  0  0  0  0  0  0  0  0  0
   -2.2000   -7.0520    5.8210 C   0  0  0  0  0  0  0  0  0  0  0  0
   -2.6390   -5.7930    6.5250 C   0  0  0  0  0  0  0  0  0  0  0  0
   -2.7480   -5.9330    8.0310 C   0  0  0  0  0  0  0  0  0  0  0  0
   -2.2820   -6.8510    8.6470 O   0  0  0  0  0  0  0  0  0  0  0  0
   -3.4100   -4.8800    8.6170 O   0  0  0  0  0  0  0  0  0  0  0  0
   -3.7520   -4.7850   10.1840 P   0  0  0  0  0  0  0  0  0  0  0  0
   -4.3180   -3.4420   10.4410 O   0  0  0  0  0  0  0  0  0  0  0  0
   -4.5530   -5.9810   10.5980 O   0  0  0  0  0  0  0  0  0  0  0  0
   -2.2910   -4.8970   10.8710 O   0  0  0  0  0  0  0  0  0  0  0  0
   -1.3470   -3.8770   10.7280 C   0  0  0  0  0  0  0  0  0  0  0  0
   -0.2970   -4.0920   11.7980 C   0  0  1  0  0  0  0  0  0  0  0  0
    0.4520   -5.2570   11.5010 O   0  0  0  0  0  0  0  0  0  0  0  0
    1.7970   -5.0590   11.9230 C   0  0  1  0  0  0  0  0  0  0  0  0
    2.6420   -5.2030   10.7210 N   0  0  0  0  0  0  0  0  0  0  0  0
    3.2950   -4.2430   10.0330 C   0  0  0  0  0  0  0  0  0  0  0  0
    3.9370   -4.7430    8.9680 N   0  0  0  0  0  0  0  0  0  0  0  0
    3.6890   -6.0680    8.9790 C   0  0  0  0  0  0  0  0  0  0  0  0
    4.0690   -7.1400    8.1360 C   0  0  0  0  0  0  0  0  0  0  0  0
    4.8500   -6.9360    7.0420 N   0  0  0  0  0  0  0  0  0  0  0  0
    3.6290   -8.3930    8.4320 N   0  0  0  0  0  0  0  0  0  0  0  0
    2.8340   -8.5990    9.5140 C   0  0  0  0  0  0  0  0  0  0  0  0
    2.4350   -7.6230   10.3600 N   0  0  0  0  0  0  0  0  0  0  0  0
    2.8590   -6.3720   10.0810 C   0  0  0  0  0  0  0  0  0  0  0  0
    1.8660   -3.6730   12.5280 C   0  0  2  0  0  0  0  0  0  0  0  0
    1.6140   -3.7920   13.9250 O   0  0  0  0  0  0  0  0  0  0  0  0
    0.7120   -2.9740   11.8490 C   0  0  2  0  0  0  0  0  0  0  0  0
    0.2430   -1.8650   12.5910 O   0  0  0  0  0  0  0  0  0  0  0  0
    0.4740   -6.5540    0.0990 C   0  0  0  0  0  0  0  0  0  0  0  0
    0.0090   -5.6460    0.9900 O   0  0  0  0  0  0  0  0  0  0  0  0
    1.1670   -6.1280   -1.0280 C   0  0  0  0  0  0  0  0  0  0  0  0
    3.4922   -5.9814   -4.9295 H   0  0  0  0  0  0  0  0  0  0  0  0
    1.7970   -9.1330   -2.4870 H   0  0  0  0  0  0  0  0  0  0  0  0
    0.5768   -9.9071   -0.4707 H   0  0  0  0  0  0  0  0  0  0  0  0
   -0.7375   -6.5643    2.2322 H   0  0  0  0  0  0  0  0  0  0  0  0
   -2.3520   -8.5690    3.4611 H   0  0  0  0  0  0  0  0  0  0  0  0
   -0.7501   -8.5322    4.2660 H   0  0  0  0  0  0  0  0  0  0  0  0
   -1.0388   -5.9994    4.3878 H   0  0  0  0  0  0  0  0  0  0  0  0
   -2.7575   -6.2909    3.9232 H   0  0  0  0  0  0  0  0  0  0  0  0
   -3.0132   -7.7923    5.8467 H   0  0  0  0  0  0  0  0  0  0  0  0
   -1.3160   -7.4716    6.3235 H   0  0  0  0  0  0  0  0  0  0  0  0
   -1.9089   -5.0006    6.3035 H   0  0  0  0  0  0  0  0  0  0  0  0
   -3.6473   -5.5567    6.1541 H   0  0  0  0  0  0  0  0  0  0  0  0
   -0.8856   -3.9264    9.7307 H   0  0  0  0  0  0  0  0  0  0  0  0
   -1.8181   -2.8886   10.8334 H   0  0  0  0  0  0  0  0  0  0  0  0
   -0.8425   -4.1584   12.7509 H   0  0  0  0  0  0  0  0  0  0  0  0
    2.1441   -5.7798   12.6779 H   0  0  0  0  0  0  0  0  0  0  0  0
    3.2998   -3.1791   10.3124 H   0  0  0  0  0  0  0  0  0  0  0  0
    5.1144   -7.7308    6.4425 H   0  0  0  0  0  0  0  0  0  0  0  0
    5.1773   -5.9867    6.8127 H   0  0  0  0  0  0  0  0  0  0  0  0
    2.4931   -9.6254    9.7146 H   0  0  0  0  0  0  0  0  0  0  0  0
    2.8259   -3.1512   12.4001 H   0  0  0  0  0  0  0  0  0  0  0  0
    2.3833   -3.4287   14.4312 H   0  0  0  0  0  0  0  0  0  0  0  0
    0.9588   -2.5363   10.8705 H   0  0  0  0  0  0  0  0  0  0  0  0
    0.3243   -2.0572   13.5587 H   0  0  0  0  0  0  0  0  0  0  0  0
    0.1620   -4.6798    0.8377 H   0  0  0  0  0  0  0  0  0  0  0  0
    1.3446   -5.0546   -1.1897 H   0  0  0  0  0  0  0  0  0  0  0  0
  1  2  3  0
  2  3  1  0
  3  4  2  0
  3 41  1  0
  4  5  1  0
  5  6  2  0
  6  7  1  0
  6 39  1  0
  7  8  2  0
  7  9  1  0
  9 10  1  0
 10 11  1  0
 11 12  1  0
 12 13  1  0
 13 14  1  0
 14 15  2  0
 14 16  1  0
 16 17  1  0
 17 18  2  0
 17 19  1  0
 17 20  1  0
 20 21  1  0
 21 22  1  0
 22 23  1  0
 22 37  1  0
 23 24  1  0
 24 25  1  0
 24 35  1  0
 25 26  1  0
 25 34  1  0
 26 27  2  0
 27 28  1  0
 28 29  2  0
 28 34  1  0
 29 30  1  0
 29 31  1  0
 31 32  2  0
 32 33  1  0
 33 34  2  0
 35 36  1  0
 35 37  1  0
 37 38  1  0
 39 40  1  0
 39 41  2  0
  1 42  1  0
  4 43  1  0
  5 44  1  0
  9 45  1  0
 10 46  1  0
 10 47  1  0
 11 48  1  0
 11 49  1  0
 12 50  1  0
 12 51  1  0
 13 52  1  0
 13 53  1  0
 21 54  1  0
 21 55  1  0
 22 56  1  1
 24 57  1  1
 26 58  1  0
 30 59  1  0
 30 60  1  0
 32 61  1  0
 35 62  1  1
 36 63  1  0
 37 64  1  6
 38 65  1  0
 40 66  1  0
 41 67  1  0
M  CHG  1  19  -1
M  END
