P5_AMP
     RDKit          3D

 66 69  0  0  0  0  0  0  0  0999 V2000
    1.9640   -9.3780   -4.5400 C   0  0  0  0  0  0  0  0  0  0  0  0
    1.6400   -9.0030   -3.5620 C   0  0  0  0  0  0  0  0  0  0  0  0
    1.2030   -8.5340   -2.2660 C   0  0  0  0  0  0  0  0  0  0  0  0
    1.1870   -7.1820   -1.9610 C   0  0  0  0  0  0  0  0  0  0  0  0
    0.7600   -6.7750   -0.7060 C   0  0  0  0  0  0  0  0  0  0  0  0
    0.3460   -7.6920    0.2470 C   0  0  0  0  0  0  0  0  0  0  0  0
   -0.0930   -7.2430    1.5840 C   0  0  0  0  0  0  0  0  0  0  0  0
    0.2170   -6.1360    2.0090 O   0  0  0  0  0  0  0  0  0  0  0  0
   -0.8450   -8.1130    2.3010 N   0  0  0  0  0  0  0  0  0  0  0  0
   -1.1350   -8.0570    3.6900 C   0  0  0  0  0  0  0  0  0  0  0  0
   -1.8610   -6.8590    4.2430 C   0  0  0  0  0  0  0  0  0  0  0  0
   -1.9960   -7.0340    5.7260 C   0  0  0  0  0  0  0  0  0  0  0  0
   -2.6400   -5.8470    6.3740 C   0  0  0  0  0  0  0  0  0  0  0  0
   -2.6920   -5.9400    7.8930 C   0  0  0  0  0  0  0  0  0  0  0  0
   -2.1930   -6.8440    8.5210 O   0  0  0  0  0  0  0  0  0  0  0  0
   -3.3490   -4.9020    8.5030 O   0  0  0  0  0  0  0  0  0  0  0  0
   -3.7130   -4.8280   10.0710 P   0  0  0  0  0  0  0  0  0  0  0  0
   -4.4850   -6.0460   10.4460 O   0  0  0  0  0  0  0  0  0  0  0  0
   -4.3030   -3.4920   10.3350 O   0  0  0  0  0  0  0  0  0  0  0  0
   -2.2490   -4.9230   10.7770 O   0  0  0  0  0  0  0  0  0  0  0  0
   -1.3070   -3.8800   10.6570 C   0  0  0  0  0  0  0  0  0  0  0  0
   -0.2410   -4.1200   11.7150 C   0  0  1  0  0  0  0  0  0  0  0  0
    0.5190   -5.2680   11.3550 O   0  0  0  0  0  0  0  0  0  0  0  0
    1.8460   -5.0980   11.8330 C   0  0  1  0  0  0  0  0  0  0  0  0
    2.7090   -5.2220   10.6360 N   0  0  0  0  0  0  0  0  0  0  0  0
    3.3260   -4.2550    9.9560 C   0  0  0  0  0  0  0  0  0  0  0  0
    3.9880   -4.7450    8.9040 N   0  0  0  0  0  0  0  0  0  0  0  0
    3.7790   -6.0810    8.9210 C   0  0  0  0  0  0  0  0  0  0  0  0
    4.1940   -7.1450    8.0830 C   0  0  0  0  0  0  0  0  0  0  0  0
    4.9700   -6.9360    6.9840 N   0  0  0  0  0  0  0  0  0  0  0  0
    3.7880   -8.4070    8.3870 N   0  0  0  0  0  0  0  0  0  0  0  0
    2.9950   -8.6300    9.4750 C   0  0  0  0  0  0  0  0  0  0  0  0
    2.5660   -7.6600   10.3080 N   0  0  0  0  0  0  0  0  0  0  0  0
    2.9560   -6.4070   10.0170 C   0  0  0  0  0  0  0  0  0  0  0  0
    1.9130   -3.7340   12.4780 C   0  0  2  0  0  0  0  0  0  0  0  0
    1.6460   -3.8950   13.8720 O   0  0  0  0  0  0  0  0  0  0  0  0
    0.7610   -3.0070   11.8100 C   0  0  2  0  0  0  0  0  0  0  0  0
    0.2850   -1.9320   12.6060 O   0  0  0  0  0  0  0  0  0  0  0  0
    0.3810   -9.0380   -0.0840 C   0  0  0  0  0  0  0  0  0  0  0  0
    0.7990   -9.4610   -1.3340 C   0  0  0  0  0  0  0  0  0  0  0  0
    2.2891   -9.7542   -5.5212 H   0  0  0  0  0  0  0  0  0  0  0  0
    1.5095   -6.4400   -2.7063 H   0  0  0  0  0  0  0  0  0  0  0  0
    0.7497   -5.7025   -0.4620 H   0  0  0  0  0  0  0  0  0  0  0  0
   -1.2517   -8.9032    1.7803 H   0  0  0  0  0  0  0  0  0  0  0  0
   -1.7467   -8.9402    3.9261 H   0  0  0  0  0  0  0  0  0  0  0  0
   -0.1428   -8.0012    4.1615 H   0  0  0  0  0  0  0  0  0  0  0  0
   -1.2888   -5.9448    4.0269 H   0  0  0  0  0  0  0  0  0  0  0  0
   -2.8547   -6.7707    3.7796 H   0  0  0  0  0  0  0  0  0  0  0  0
   -2.6110   -7.9242    5.9242 H   0  0  0  0  0  0  0  0  0  0  0  0
   -0.9866   -7.1462    6.1485 H   0  0  0  0  0  0  0  0  0  0  0  0
   -2.0693   -4.9477    6.0993 H   0  0  0  0  0  0  0  0  0  0  0  0
   -3.6793   -5.8062    6.0159 H   0  0  0  0  0  0  0  0  0  0  0  0
   -0.8542   -3.8933    9.6546 H   0  0  0  0  0  0  0  0  0  0  0  0
   -1.7863   -2.8999   10.7977 H   0  0  0  0  0  0  0  0  0  0  0  0
   -0.7805   -4.2199   12.6684 H   0  0  0  0  0  0  0  0  0  0  0  0
    2.1681   -5.8322   12.5861 H   0  0  0  0  0  0  0  0  0  0  0  0
    3.2940   -3.1893   10.2268 H   0  0  0  0  0  0  0  0  0  0  0  0
    5.2544   -7.7320    6.3955 H   0  0  0  0  0  0  0  0  0  0  0  0
    5.2726   -5.9819    6.7411 H   0  0  0  0  0  0  0  0  0  0  0  0
    2.6867   -9.6647    9.6855 H   0  0  0  0  0  0  0  0  0  0  0  0
    2.8757   -3.2124   12.3725 H   0  0  0  0  0  0  0  0  0  0  0  0
    2.3644   -3.4618   14.3978 H   0  0  0  0  0  0  0  0  0  0  0  0
    1.0106   -2.5321   10.8497 H   0  0  0  0  0  0  0  0  0  0  0  0
    0.3862   -2.1606   13.5639 H   0  0  0  0  0  0  0  0  0  0  0  0
    0.0704   -9.7847    0.6617 H   0  0  0  0  0  0  0  0  0  0  0  0
    0.8080  -10.5330   -1.5805 H   0  0  0  0  0  0  0  0  0  0  0  0
  1  2  3  0
  2  3  1  0
  3  4  2  0
  3 40  1  0
  4  5  1  0
  5  6  2  0
  6  7  1  0
  6 39  1  0
  7  8  2  0
  7  9  1  0
  9 10  1  0
 10 11  1  0
 11 12  1  0
 12 13  1  0
 13 14  1  0
 14 15  2  0
 14 16  1  0
 16 17  1  0
 17 18  2  0
 17 19  1  0
 17 20  1  0
 20 21  1  0
 21 22  1  0
 22 23  1  0
 22 37  1  0
 23 24  1  0
 24 25  1  0
 24 35  1  0
 25 26  1  0
 25 34  1  0
 26 27  2  0
 27 28  1  0
 28 29  2  0
 28 34  1  0
 29 30  1  0
 29 31  1  0
 31 32  2  0
 32 33  1  0
 33 34  2  0
 35 36  1  0
 35 37  1  0
 37 38  1  0
 39 40  2  0
  1 41  1  0
  4 42  1  0
  5 43  1  0
  9 44  1  0
 10 45  1  0
 10 46  1  0
 11 47  1  0
 11 48  1  0
 12 49  1  0
 12 50  1  0
 13 51  1  0
 13 52  1  0
 21 53  1  0
 21 54  1  0
 22 55  1  1
 24 56  1  1
 26 57  1  0
 30 58  1  0
 30 59  1  0
 32 60  1  0
 35 61  1  1
 36 62  1  0
 37 63  1  6
 38 64  1  0
 39 65  1  0
 40 66  1  0
M  CHG  1  19  -1
M  END
