Pb5_AMP
     RDKit          3D

 70 73  0  0  0  0  0  0  0  0999 V2000
    2.0160  -11.4730   -3.9000 C   0  0  0  0  0  0  0  0  0  0  0  0
    1.7620  -10.3880   -4.1390 C   0  0  0  0  0  0  0  0  0  0  0  0
    1.4540   -8.9360   -4.3910 C   0  0  0  0  0  0  0  0  0  0  0  0
    2.0630   -8.1290   -3.4260 O   0  0  0  0  0  0  0  0  0  0  0  0
    1.4790   -7.9930   -2.1720 C   0  0  0  0  0  0  0  0  0  0  0  0
    0.9960   -9.0690   -1.4200 C   0  0  0  0  0  0  0  0  0  0  0  0
    0.4750   -8.8480   -0.1610 C   0  0  0  0  0  0  0  0  0  0  0  0
    0.4130   -7.5580    0.3560 C   0  0  0  0  0  0  0  0  0  0  0  0
   -0.0920   -7.2760    1.7170 C   0  0  0  0  0  0  0  0  0  0  0  0
    0.2780   -6.2600    2.2770 O   0  0  0  0  0  0  0  0  0  0  0  0
   -0.9300   -8.1570    2.3140 N   0  0  0  0  0  0  0  0  0  0  0  0
   -1.3020   -8.1810    3.7040 C   0  0  0  0  0  0  0  0  0  0  0  0
   -1.9020   -6.9200    4.2880 C   0  0  0  0  0  0  0  0  0  0  0  0
   -2.0800   -7.0880    5.7740 C   0  0  0  0  0  0  0  0  0  0  0  0
   -2.5710   -5.8440    6.4390 C   0  0  0  0  0  0  0  0  0  0  0  0
   -2.6550   -5.9490    7.9560 C   0  0  0  0  0  0  0  0  0  0  0  0
   -2.1910   -6.8500    8.5910 O   0  0  0  0  0  0  0  0  0  0  0  0
   -3.3140   -4.8890    8.5470 O   0  0  0  0  0  0  0  0  0  0  0  0
   -3.6630   -4.7590   10.0970 P   0  0  0  0  0  0  0  0  0  0  0  0
   -4.1950   -3.4120   10.3280 O   0  0  0  0  0  0  0  0  0  0  0  0
   -4.4760   -5.9470   10.5150 O   0  0  0  0  0  0  0  0  0  0  0  0
   -2.2180   -4.8860   10.8090 O   0  0  0  0  0  0  0  0  0  0  0  0
   -1.2640   -3.8690   10.7130 C   0  0  0  0  0  0  0  0  0  0  0  0
   -0.2130   -4.1190   11.7760 C   0  0  1  0  0  0  0  0  0  0  0  0
    0.5330   -5.2690   11.4170 O   0  0  0  0  0  0  0  0  0  0  0  0
    1.8660   -5.1190   11.8720 C   0  0  1  0  0  0  0  0  0  0  0  0
    2.7100   -5.2440   10.6700 N   0  0  0  0  0  0  0  0  0  0  0  0
    3.3430   -4.2640    9.9840 C   0  0  0  0  0  0  0  0  0  0  0  0
    3.9870   -4.7520    8.9230 N   0  0  0  0  0  0  0  0  0  0  0  0
    3.7610   -6.0890    8.9380 C   0  0  0  0  0  0  0  0  0  0  0  0
    4.1560   -7.1560    8.0970 C   0  0  0  0  0  0  0  0  0  0  0  0
    4.9340   -6.9410    6.9910 N   0  0  0  0  0  0  0  0  0  0  0  0
    3.7420   -8.4130    8.3950 N   0  0  0  0  0  0  0  0  0  0  0  0
    2.9590   -8.6230    9.4840 C   0  0  0  0  0  0  0  0  0  0  0  0
    2.5510   -7.6590   10.3180 N   0  0  0  0  0  0  0  0  0  0  0  0
    2.9460   -6.3990   10.0390 C   0  0  0  0  0  0  0  0  0  0  0  0
    1.9570   -3.7630   12.5230 C   0  0  2  0  0  0  0  0  0  0  0  0
    1.7140   -3.9180   13.9260 O   0  0  0  0  0  0  0  0  0  0  0  0
    0.8020   -3.0200   11.8830 C   0  0  2  0  0  0  0  0  0  0  0  0
    0.3590   -1.9470   12.6860 O   0  0  0  0  0  0  0  0  0  0  0  0
    0.8880   -6.5160   -0.4220 C   0  0  0  0  0  0  0  0  0  0  0  0
    1.4170   -6.7370   -1.6710 C   0  0  0  0  0  0  0  0  0  0  0  0
    2.2612  -12.5202   -3.6693 H   0  0  0  0  0  0  0  0  0  0  0  0
    1.8285   -8.6545   -5.3862 H   0  0  0  0  0  0  0  0  0  0  0  0
    0.3649   -8.7904   -4.3389 H   0  0  0  0  0  0  0  0  0  0  0  0
    1.0313  -10.0888   -1.8309 H   0  0  0  0  0  0  0  0  0  0  0  0
    0.1073   -9.6955    0.4360 H   0  0  0  0  0  0  0  0  0  0  0  0
   -1.3429   -8.8836    1.7119 H   0  0  0  0  0  0  0  0  0  0  0  0
   -2.0386   -8.9875    3.8342 H   0  0  0  0  0  0  0  0  0  0  0  0
   -0.3545   -8.3178    4.2457 H   0  0  0  0  0  0  0  0  0  0  0  0
   -1.2307   -6.0706    4.0932 H   0  0  0  0  0  0  0  0  0  0  0  0
   -2.8799   -6.7301    3.8215 H   0  0  0  0  0  0  0  0  0  0  0  0
   -2.8076   -7.8934    5.9526 H   0  0  0  0  0  0  0  0  0  0  0  0
   -1.0954   -7.3276    6.2020 H   0  0  0  0  0  0  0  0  0  0  0  0
   -1.8854   -5.0219    6.1859 H   0  0  0  0  0  0  0  0  0  0  0  0
   -3.5934   -5.6679    6.0734 H   0  0  0  0  0  0  0  0  0  0  0  0
   -0.7993   -3.8846    9.7161 H   0  0  0  0  0  0  0  0  0  0  0  0
   -1.7341   -2.8855   10.8607 H   0  0  0  0  0  0  0  0  0  0  0  0
   -0.7608   -4.2116   12.7254 H   0  0  0  0  0  0  0  0  0  0  0  0
    2.1900   -5.8647   12.6130 H   0  0  0  0  0  0  0  0  0  0  0  0
    3.3282   -3.2008   10.2656 H   0  0  0  0  0  0  0  0  0  0  0  0
    5.2094   -7.7332    6.3932 H   0  0  0  0  0  0  0  0  0  0  0  0
    5.2439   -5.9870    6.7568 H   0  0  0  0  0  0  0  0  0  0  0  0
    2.6386   -9.6540    9.6949 H   0  0  0  0  0  0  0  0  0  0  0  0
    2.9262   -3.2574   12.4008 H   0  0  0  0  0  0  0  0  0  0  0  0
    2.4288   -3.4620   14.4371 H   0  0  0  0  0  0  0  0  0  0  0  0
    1.0401   -2.5372   10.9237 H   0  0  0  0  0  0  0  0  0  0  0  0
    0.4581   -2.1870   13.6414 H   0  0  0  0  0  0  0  0  0  0  0  0
    0.8410   -5.4886   -0.0319 H   0  0  0  0  0  0  0  0  0  0  0  0
    1.7912   -5.8905   -2.2655 H   0  0  0  0  0  0  0  0  0  0  0  0
  1  2  3  0
  2  3  1  0
  3  4  1  0
  4  5  1  0
  5  6  2  0
  5 42  1  0
  6  7  1  0
  7  8  2  0
  8  9  1  0
  8 41  1  0
  9 10  2  0
  9 11  1  0
 11 12  1  0
 12 13  1  0
 13 14  1  0
 14 15  1  0
 15 16  1  0
 16 17  2  0
 16 18  1  0
 18 19  1  0
 19 20  2  0
 19 21  1  0
 19 22  1  0
 22 23  1  0
 23 24  1  0
 24 25  1  0
 24 39  1  0
 25 26  1  0
 26 27  1  0
 26 37  1  0
 27 28  1  0
 27 36  1  0
 28 29  2  0
 29 30  1  0
 30 31  2  0
 30 36  1  0
 31 32  1  0
 31 33  1  0
 33 34  2  0
 34 35  1  0
 35 36  2  0
 37 38  1  0
 37 39  1  0
 39 40  1  0
 41 42  2  0
  1 43  1  0
  3 44  1  0
  3 45  1  0
  6 46  1  0
  7 47  1  0
 11 48  1  0
 12 49  1  0
 12 50  1  0
 13 51  1  0
 13 52  1  0
 14 53  1  0
 14 54  1  0
 15 55  1  0
 15 56  1  0
 23 57  1  0
 23 58  1  0
 24 59  1  1
 26 60  1  1
 28 61  1  0
 32 62  1  0
 32 63  1  0
 34 64  1  0
 37 65  1  1
 38 66  1  0
 39 67  1  6
 40 68  1  0
 41 69  1  0
 42 70  1  0
M  CHG  1  21  -1
M  END
